* NGSPICE file created from DAC_temp.ext - technology: sky130B

.subckt DAC enb en_buf ctl1 ctl0 dum ctl3 ctl4 ctl5 ctl6 ctl7 ctl2 vin out vss
+ vdd sample
X0 vdd.t109 sample.t0 a_44621_2120.t5 vdd.t108 sky130_fd_pr__pfet_01v8_hvt ad=0.135 pd=1.27 as=0.135 ps=1.27 w=1 l=0.15
X1 vdd.t60 vss.t164 vdd.t59 vdd.t58 sky130_fd_pr__pfet_01v8_hvt ad=0.226 pd=2.26 as=0 ps=0 w=0.87 l=0.59
X2 out.t80 m2_30325_9390# sky130_fd_pr__cap_mim_m3_1 l=2 w=2
X3 vdd.t63 vss.t165 vdd.t62 vdd.t61 sky130_fd_pr__pfet_01v8_hvt ad=0.226 pd=2.26 as=0 ps=0 w=0.87 l=0.59
X4 out.t81 m2_34225_9390# sky130_fd_pr__cap_mim_m3_1 l=2 w=2
X5 out.t82 m2_38125_9390# sky130_fd_pr__cap_mim_m3_1 l=2 w=2
X6 out.t83 carray_0.n6.t66 sky130_fd_pr__cap_mim_m3_1 l=2 w=2
X7 out.t84 carray_0.n5.t34 sky130_fd_pr__cap_mim_m3_1 l=2 w=2
X8 out.t32 a_45464_6355# vin.t34 vss.t45 sky130_fd_pr__nfet_01v8 ad=0.145 pd=1.29 as=0.29 ps=2.58 w=1 l=0.3
X9 vdd.t107 sample.t1 enb.t15 vdd.t106 sky130_fd_pr__pfet_01v8_hvt ad=0.26 pd=2.52 as=0.135 ps=1.27 w=1 l=0.15
X10 vdd ctl1.t0 carray_0.n1.t5 vdd sky130_fd_pr__pfet_01v8_hvt ad=0.26 pd=2.52 as=0.135 ps=1.27 w=1 l=0.15
X11 out.t42 a_45464_2123# vin.t46 vss.t62 sky130_fd_pr__nfet_01v8 ad=0.145 pd=1.29 as=0.29 ps=2.58 w=1 l=0.3
X12 vss.t117 sample.t2 enb vss.t116 sky130_fd_pr__nfet_01v8 ad=0.169 pd=1.82 as=0.0878 ps=0.92 w=0.65 l=0.15
X13 out.t85 m2_43325_6030# sky130_fd_pr__cap_mim_m3_1 l=2 w=2
X14 out.t86 carray_0.n5.t33 sky130_fd_pr__cap_mim_m3_1 l=2 w=2
X15 out.t87 carray_0.n7.t129 sky130_fd_pr__cap_mim_m3_1 l=2 w=2
X16 out.t88 carray_0.n7.t128 sky130_fd_pr__cap_mim_m3_1 l=2 w=2
X17 a_44621_6352.t7 sample.t3 vdd.t105 vdd.t104 sky130_fd_pr__pfet_01v8_hvt ad=0.135 pd=1.27 as=0.26 ps=2.52 w=1 l=0.15
X18 out.t76 a_44621_2120.t8 vin.t76 vdd.t135 sky130_fd_pr__pfet_01v8 ad=0.145 pd=1.29 as=0.145 ps=1.29 w=1 l=0.3
X19 vdd ctl4.t0 carray_0.n4.t3 vdd sky130_fd_pr__pfet_01v8_hvt ad=0.26 pd=2.52 as=0.135 ps=1.27 w=1 l=0.15
X20 a_44621_2120.t1 sample.t4 vdd.t103 vdd.t102 sky130_fd_pr__pfet_01v8_hvt ad=0.135 pd=1.27 as=0.26 ps=2.52 w=1 l=0.15
X21 en_buf.t15 enb.t16 vdd.t163 vdd.t162 sky130_fd_pr__pfet_01v8_hvt ad=0.135 pd=1.27 as=0.135 ps=1.27 w=1 l=0.15
X22 out.t89 m2_43325_6870# sky130_fd_pr__cap_mim_m3_1 l=2 w=2
X23 out.t90 carray_0.n7.t127 sky130_fd_pr__cap_mim_m3_1 l=2 w=2
X24 out.t91 carray_0.n5.t32 sky130_fd_pr__cap_mim_m3_1 l=2 w=2
X25 out.t92 carray_0.n7.t126 sky130_fd_pr__cap_mim_m3_1 l=2 w=2
X26 out.t93 carray_0.n6.t65 sky130_fd_pr__cap_mim_m3_1 l=2 w=2
X27 out.t94 carray_0.n7.t125 sky130_fd_pr__cap_mim_m3_1 l=2 w=2
X28 out.t95 carray_0.n4.t19 sky130_fd_pr__cap_mim_m3_1 l=2 w=2
X29 out.t96 carray_0.n7.t124 sky130_fd_pr__cap_mim_m3_1 l=2 w=2
X30 out.t97 m2_43325_7710# sky130_fd_pr__cap_mim_m3_1 l=2 w=2
X31 out.t98 carray_0.n7.t123 sky130_fd_pr__cap_mim_m3_1 l=2 w=2
X32 out.t99 carray_0.n5.t31 sky130_fd_pr__cap_mim_m3_1 l=2 w=2
X33 out.t100 carray_0.n7.t122 sky130_fd_pr__cap_mim_m3_1 l=2 w=2
X34 out.t101 carray_0.n6.t64 sky130_fd_pr__cap_mim_m3_1 l=2 w=2
X35 out.t102 carray_0.n7.t121 sky130_fd_pr__cap_mim_m3_1 l=2 w=2
X36 out.t103 carray_0.n7.t120 sky130_fd_pr__cap_mim_m3_1 l=2 w=2
X37 out.t104 carray_0.n4.t18 sky130_fd_pr__cap_mim_m3_1 l=2 w=2
X38 out.t7 en_buf vin.t13 vss.t14 sky130_fd_pr__nfet_01v8 ad=0.145 pd=1.29 as=0.145 ps=1.29 w=1 l=0.3
X39 out.t105 carray_0.n6.t63 sky130_fd_pr__cap_mim_m3_1 l=2 w=2
X40 out.t33 a_45464_6355# vin.t33 vss.t44 sky130_fd_pr__nfet_01v8 ad=0.145 pd=1.29 as=0.145 ps=1.29 w=1 l=0.3
X41 out.t106 m2_3025_1830# sky130_fd_pr__cap_mim_m3_1 l=2 w=2
X42 out.t107 m2_6925_1830# sky130_fd_pr__cap_mim_m3_1 l=2 w=2
X43 out.t108 carray_0.n5.t30 sky130_fd_pr__cap_mim_m3_1 l=2 w=2
X44 vdd.t5 enb.t17 en_buf.t14 vdd.t4 sky130_fd_pr__pfet_01v8_hvt ad=0.135 pd=1.27 as=0.135 ps=1.27 w=1 l=0.15
X45 vin.t58 enb out.t52 vdd.t56 sky130_fd_pr__pfet_01v8 ad=0.145 pd=1.29 as=0.145 ps=1.29 w=1 l=0.3
X46 out.t109 carray_0.n4.t17 sky130_fd_pr__cap_mim_m3_1 l=2 w=2
X47 out.t110 m2_40725_1830# sky130_fd_pr__cap_mim_m3_1 l=2 w=2
X48 out.t111 carray_0.n6.t62 sky130_fd_pr__cap_mim_m3_1 l=2 w=2
X49 vss.t31 ctl2.t0 carray_0.n2.t5 vss.t30 sky130_fd_pr__nfet_01v8 ad=0.169 pd=1.82 as=0.0878 ps=0.92 w=0.65 l=0.15
X50 out.t112 carray_0.n6.t61 sky130_fd_pr__cap_mim_m3_1 l=2 w=2
X51 out.t113 carray_0.n6.t60 sky130_fd_pr__cap_mim_m3_1 l=2 w=2
X52 out.t114 carray_0.n5.t29 sky130_fd_pr__cap_mim_m3_1 l=2 w=2
X53 vin.t47 a_44621_6352.t8 out.t47 vdd.t38 sky130_fd_pr__pfet_01v8 ad=0.29 pd=2.58 as=0.145 ps=1.29 w=1 l=0.3
X54 en_buf enb vss.t71 vss.t70 sky130_fd_pr__nfet_01v8 ad=0.0878 pd=0.92 as=0.0878 ps=0.92 w=0.65 l=0.15
X55 out.t115 carray_0.n6.t59 sky130_fd_pr__cap_mim_m3_1 l=2 w=2
X56 out.t116 carray_0.n6.t58 sky130_fd_pr__cap_mim_m3_1 l=2 w=2
X57 out.t117 carray_0.n6.t57 sky130_fd_pr__cap_mim_m3_1 l=2 w=2
X58 vss.t28 ctl5.t0 carray_0.n5.t2 vss.t27 sky130_fd_pr__nfet_01v8 ad=0.169 pd=1.82 as=0.0878 ps=0.92 w=0.65 l=0.15
X59 vss.t154 a_44621_2120.t9 a_45464_2123# vss.t153 sky130_fd_pr__nfet_01v8 ad=0.169 pd=1.82 as=0.0878 ps=0.92 w=0.65 l=0.15
X60 out.t118 m2_21225_1830# sky130_fd_pr__cap_mim_m3_1 l=2 w=2
X61 out.t119 m2_25125_1830# sky130_fd_pr__cap_mim_m3_1 l=2 w=2
X62 out.t120 m2_29025_1830# sky130_fd_pr__cap_mim_m3_1 l=2 w=2
X63 out.t121 carray_0.n6.t56 sky130_fd_pr__cap_mim_m3_1 l=2 w=2
X64 enb sample.t5 vss.t115 vss.t114 sky130_fd_pr__nfet_01v8 ad=0.0878 pd=0.92 as=0.0878 ps=0.92 w=0.65 l=0.15
X65 out.t122 m2_43325_8550# sky130_fd_pr__cap_mim_m3_1 l=2 w=2
X66 out.t123 carray_0.n5.t28 sky130_fd_pr__cap_mim_m3_1 l=2 w=2
X67 out.t124 carray_0.n7.t119 sky130_fd_pr__cap_mim_m3_1 l=2 w=2
X68 out.t125 carray_0.n7.t118 sky130_fd_pr__cap_mim_m3_1 l=2 w=2
X69 out.t126 carray_0.n7.t117 sky130_fd_pr__cap_mim_m3_1 l=2 w=2
X70 out.t127 carray_0.n7.t116 sky130_fd_pr__cap_mim_m3_1 l=2 w=2
X71 out.t128 carray_0.n3.t8 sky130_fd_pr__cap_mim_m3_1 l=2 w=2
X72 out.t129 carray_0.n7.t115 sky130_fd_pr__cap_mim_m3_1 l=2 w=2
X73 out.t130 carray_0.n7.t114 sky130_fd_pr__cap_mim_m3_1 l=2 w=2
X74 out.t131 carray_0.n7.t113 sky130_fd_pr__cap_mim_m3_1 l=2 w=2
X75 vss.t69 enb en_buf vss.t68 sky130_fd_pr__nfet_01v8 ad=0.0878 pd=0.92 as=0.0878 ps=0.92 w=0.65 l=0.15
X76 out.t132 m2_43325_9390# sky130_fd_pr__cap_mim_m3_1 l=2 w=2
X77 vss.t146 vdd.t164 vss.t145 vss.t144 sky130_fd_pr__nfet_01v8 ad=0.143 pd=1.62 as=0 ps=0 w=0.55 l=2.89
X78 out.t133 carray_0.n7.t112 sky130_fd_pr__cap_mim_m3_1 l=2 w=2
X79 out.t134 m2_10825_9390# sky130_fd_pr__cap_mim_m3_1 l=2 w=2
X80 out.t135 carray_0.n7.t111 sky130_fd_pr__cap_mim_m3_1 l=2 w=2
X81 out.t136 m2_18625_9390# sky130_fd_pr__cap_mim_m3_1 l=2 w=2
X82 out.t137 m2_14725_9390# sky130_fd_pr__cap_mim_m3_1 l=2 w=2
X83 out.t138 carray_0.n3.t7 sky130_fd_pr__cap_mim_m3_1 l=2 w=2
X84 out.t139 carray_0.n7.t110 sky130_fd_pr__cap_mim_m3_1 l=2 w=2
X85 out.t140 carray_0.n7.t109 sky130_fd_pr__cap_mim_m3_1 l=2 w=2
X86 out.t141 carray_0.n7.t108 sky130_fd_pr__cap_mim_m3_1 l=2 w=2
X87 out.t142 carray_0.n4.t16 sky130_fd_pr__cap_mim_m3_1 l=2 w=2
X88 carray_0.n5.t35 ctl5.t1 vss.t79 vss.t78 sky130_fd_pr__nfet_01v8 ad=0.0878 pd=0.92 as=0.169 ps=1.82 w=0.65 l=0.15
X89 out.t143 carray_0.n7.t107 sky130_fd_pr__cap_mim_m3_1 l=2 w=2
X90 vss.t113 sample.t6 enb.t5 vss.t112 sky130_fd_pr__nfet_01v8 ad=0.0878 pd=0.92 as=0.0878 ps=0.92 w=0.65 l=0.15
X91 out.t144 carray_0.n7.t106 sky130_fd_pr__cap_mim_m3_1 l=2 w=2
X92 vss.t111 sample.t7 enb vss.t110 sky130_fd_pr__nfet_01v8 ad=0.0878 pd=0.92 as=0.0878 ps=0.92 w=0.65 l=0.15
X93 out.t145 carray_0.n7.t105 sky130_fd_pr__cap_mim_m3_1 l=2 w=2
X94 out.t146 m2_19925_9390# sky130_fd_pr__cap_mim_m3_1 l=2 w=2
X95 out.t147 carray_0.n5.t27 sky130_fd_pr__cap_mim_m3_1 l=2 w=2
X96 out.t148 carray_0.n4.t15 sky130_fd_pr__cap_mim_m3_1 l=2 w=2
X97 out.t5 en_buf vin.t12 vss.t13 sky130_fd_pr__nfet_01v8 ad=0.145 pd=1.29 as=0.145 ps=1.29 w=1 l=0.3
X98 enb.t3 sample.t8 vss.t109 vss.t108 sky130_fd_pr__nfet_01v8 ad=0.0878 pd=0.92 as=0.0878 ps=0.92 w=0.65 l=0.15
X99 out.t149 carray_0.n6.t55 sky130_fd_pr__cap_mim_m3_1 l=2 w=2
X100 out.t150 carray_0.n6.t54 sky130_fd_pr__cap_mim_m3_1 l=2 w=2
X101 vin.t48 en_buf.t16 out.t48 vss.t63 sky130_fd_pr__nfet_01v8 ad=0.145 pd=1.29 as=0.145 ps=1.29 w=1 l=0.3
X102 vss.t158 dum.t0 carray_0.ndum.t1 vss.t157 sky130_fd_pr__nfet_01v8 ad=0.169 pd=1.82 as=0.0878 ps=0.92 w=0.65 l=0.15
X103 vss.t73 ctl1.t1 carray_0.n1.t3 vss.t72 sky130_fd_pr__nfet_01v8 ad=0.169 pd=1.82 as=0.0878 ps=0.92 w=0.65 l=0.15
X104 out.t151 carray_0.n5.t26 sky130_fd_pr__cap_mim_m3_1 l=2 w=2
X105 out.t152 carray_0.n4.t14 sky130_fd_pr__cap_mim_m3_1 l=2 w=2
X106 out.t65 enb.t18 vin.t65 vdd.t112 sky130_fd_pr__pfet_01v8 ad=0.145 pd=1.29 as=0.29 ps=2.58 w=1 l=0.3
X107 out.t153 carray_0.n6.t53 sky130_fd_pr__cap_mim_m3_1 l=2 w=2
X108 vin.t63 enb.t19 out.t63 vdd.t75 sky130_fd_pr__pfet_01v8 ad=0.145 pd=1.29 as=0.145 ps=1.29 w=1 l=0.3
X109 out.t154 carray_0.n6.t52 sky130_fd_pr__cap_mim_m3_1 l=2 w=2
X110 out.t155 carray_0.n6.t51 sky130_fd_pr__cap_mim_m3_1 l=2 w=2
X111 out.t156 carray_0.n5.t25 sky130_fd_pr__cap_mim_m3_1 l=2 w=2
X112 vin.t57 enb out.t55 vdd.t55 sky130_fd_pr__pfet_01v8 ad=0.145 pd=1.29 as=0.145 ps=1.29 w=1 l=0.3
X113 vss.t1 ctl4.t1 carray_0.n4.t1 vss.t0 sky130_fd_pr__nfet_01v8 ad=0.169 pd=1.82 as=0.0878 ps=0.92 w=0.65 l=0.15
X114 vin.t19 a_44621_6352.t9 out.t19 vdd.t27 sky130_fd_pr__pfet_01v8 ad=0.145 pd=1.29 as=0.145 ps=1.29 w=1 l=0.3
X115 out.t157 carray_0.n4.t13 sky130_fd_pr__cap_mim_m3_1 l=2 w=2
X116 out.t158 carray_0.n5.t24 sky130_fd_pr__cap_mim_m3_1 l=2 w=2
X117 out.t159 carray_0.n6.t50 sky130_fd_pr__cap_mim_m3_1 l=2 w=2
X118 out.t160 carray_0.n5.t23 sky130_fd_pr__cap_mim_m3_1 l=2 w=2
X119 out.t161 carray_0.n2.t3 sky130_fd_pr__cap_mim_m3_1 l=2 w=2
X120 out.t162 carray_0.n7.t104 sky130_fd_pr__cap_mim_m3_1 l=2 w=2
X121 vss.t52 ctl0.t0 carray_0.n0.t2 vss.t51 sky130_fd_pr__nfet_01v8 ad=0.169 pd=1.82 as=0.0878 ps=0.92 w=0.65 l=0.15
X122 vdd.t101 sample.t9 enb vdd.t100 sky130_fd_pr__pfet_01v8_hvt ad=0.26 pd=2.52 as=0.135 ps=1.27 w=1 l=0.15
X123 out.t163 carray_0.n7.t103 sky130_fd_pr__cap_mim_m3_1 l=2 w=2
X124 vss.t143 vdd.t165 vss.t142 vss.t141 sky130_fd_pr__nfet_01v8 ad=0.143 pd=1.62 as=0 ps=0 w=0.55 l=0.59
X125 vss.t140 vdd.t166 vss.t139 vss.t138 sky130_fd_pr__nfet_01v8 ad=0.143 pd=1.62 as=0 ps=0 w=0.55 l=0.59
X126 carray_0.ndum.t0 dum.t1 vss.t81 vss.t80 sky130_fd_pr__nfet_01v8 ad=0.0878 pd=0.92 as=0.169 ps=1.82 w=0.65 l=0.15
X127 out.t164 carray_0.n5.t22 sky130_fd_pr__cap_mim_m3_1 l=2 w=2
X128 out.t165 carray_0.n7.t102 sky130_fd_pr__cap_mim_m3_1 l=2 w=2
X129 out.t166 carray_0.n7.t101 sky130_fd_pr__cap_mim_m3_1 l=2 w=2
X130 out.t4 en_buf vin.t11 vss.t12 sky130_fd_pr__nfet_01v8 ad=0.145 pd=1.29 as=0.145 ps=1.29 w=1 l=0.3
X131 out.t167 carray_0.n1.t1 sky130_fd_pr__cap_mim_m3_1 l=2 w=2
X132 out.t168 carray_0.n7.t100 sky130_fd_pr__cap_mim_m3_1 l=2 w=2
X133 out.t169 carray_0.n7.t99 sky130_fd_pr__cap_mim_m3_1 l=2 w=2
X134 out.t170 carray_0.n7.t98 sky130_fd_pr__cap_mim_m3_1 l=2 w=2
X135 vin.t17 en_buf.t17 out.t17 vss.t22 sky130_fd_pr__nfet_01v8 ad=0.29 pd=2.58 as=0.145 ps=1.29 w=1 l=0.3
X136 en_buf.t5 enb.t20 vss.t122 vss.t121 sky130_fd_pr__nfet_01v8 ad=0.0878 pd=0.92 as=0.169 ps=1.82 w=0.65 l=0.15
X137 vin.t10 en_buf out.t13 vss.t11 sky130_fd_pr__nfet_01v8 ad=0.29 pd=2.58 as=0.145 ps=1.29 w=1 l=0.3
X138 en_buf enb vss.t67 vss.t66 sky130_fd_pr__nfet_01v8 ad=0.0878 pd=0.92 as=0.169 ps=1.82 w=0.65 l=0.15
X139 out.t171 m2_5625_9390# sky130_fd_pr__cap_mim_m3_1 l=2 w=2
X140 out.t172 m2_1725_9390# sky130_fd_pr__cap_mim_m3_1 l=2 w=2
X141 out.t14 enb.t21 vin.t14 vdd.t19 sky130_fd_pr__pfet_01v8 ad=0.145 pd=1.29 as=0.145 ps=1.29 w=1 l=0.3
X142 out.t56 enb vin.t56 vdd.t54 sky130_fd_pr__pfet_01v8 ad=0.145 pd=1.29 as=0.145 ps=1.29 w=1 l=0.3
X143 out.t173 m2_9525_9390# sky130_fd_pr__cap_mim_m3_1 l=2 w=2
X144 out.t174 m2_30325_1830# sky130_fd_pr__cap_mim_m3_1 l=2 w=2
X145 out.t175 m2_34225_1830# sky130_fd_pr__cap_mim_m3_1 l=2 w=2
X146 out.t176 m2_38125_1830# sky130_fd_pr__cap_mim_m3_1 l=2 w=2
X147 out.t177 carray_0.n5.t21 sky130_fd_pr__cap_mim_m3_1 l=2 w=2
X148 out.t178 carray_0.n4.t12 sky130_fd_pr__cap_mim_m3_1 l=2 w=2
X149 out.t179 carray_0.n7.t97 sky130_fd_pr__cap_mim_m3_1 l=2 w=2
X150 out.t180 carray_0.n7.t96 sky130_fd_pr__cap_mim_m3_1 l=2 w=2
X151 out.t181 carray_0.n7.t95 sky130_fd_pr__cap_mim_m3_1 l=2 w=2
X152 out.t3 en_buf.t18 vin.t3 vss.t2 sky130_fd_pr__nfet_01v8 ad=0.145 pd=1.29 as=0.145 ps=1.29 w=1 l=0.3
X153 out.t182 m2_27725_9390# sky130_fd_pr__cap_mim_m3_1 l=2 w=2
X154 out.t183 m2_23825_9390# sky130_fd_pr__cap_mim_m3_1 l=2 w=2
X155 out.t184 carray_0.n7.t94 sky130_fd_pr__cap_mim_m3_1 l=2 w=2
X156 out.t185 carray_0.n7.t93 sky130_fd_pr__cap_mim_m3_1 l=2 w=2
X157 out.t186 carray_0.n7.t92 sky130_fd_pr__cap_mim_m3_1 l=2 w=2
X158 vin.t20 enb.t22 out.t20 vdd.t28 sky130_fd_pr__pfet_01v8 ad=0.145 pd=1.29 as=0.145 ps=1.29 w=1 l=0.3
X159 out.t187 carray_0.n5.t20 sky130_fd_pr__cap_mim_m3_1 l=2 w=2
X160 vin.t55 enb out.t51 vdd.t53 sky130_fd_pr__pfet_01v8 ad=0.145 pd=1.29 as=0.145 ps=1.29 w=1 l=0.3
X161 en_buf enb vdd.t52 vdd.t51 sky130_fd_pr__pfet_01v8_hvt ad=0.135 pd=1.27 as=0.135 ps=1.27 w=1 l=0.15
X162 carray_0.n0.t4 ctl0.t1 vdd vdd sky130_fd_pr__pfet_01v8_hvt ad=0.135 pd=1.27 as=0.26 ps=2.52 w=1 l=0.15
X163 vdd.t134 a_44621_2120.t10 a_45464_2123# vdd.t133 sky130_fd_pr__pfet_01v8_hvt ad=0.26 pd=2.52 as=0.135 ps=1.27 w=1 l=0.15
X164 out.t188 m2_32925_9390# sky130_fd_pr__cap_mim_m3_1 l=2 w=2
X165 out.t189 carray_0.n6.t49 sky130_fd_pr__cap_mim_m3_1 l=2 w=2
X166 enb sample.t10 vdd.t99 vdd.t98 sky130_fd_pr__pfet_01v8_hvt ad=0.135 pd=1.27 as=0.135 ps=1.27 w=1 l=0.15
X167 out.t190 carray_0.n6.t48 sky130_fd_pr__cap_mim_m3_1 l=2 w=2
X168 out.t41 a_45464_2123# vin.t45 vss.t61 sky130_fd_pr__nfet_01v8 ad=0.145 pd=1.29 as=0.145 ps=1.29 w=1 l=0.3
X169 vin.t32 a_45464_6355# out.t29 vss.t43 sky130_fd_pr__nfet_01v8 ad=0.145 pd=1.29 as=0.145 ps=1.29 w=1 l=0.3
X170 out.t191 carray_0.n7.t91 sky130_fd_pr__cap_mim_m3_1 l=2 w=2
X171 vdd.t50 enb en_buf vdd.t49 sky130_fd_pr__pfet_01v8_hvt ad=0.135 pd=1.27 as=0.135 ps=1.27 w=1 l=0.15
X172 vin.t18 en_buf.t19 out.t18 vss.t23 sky130_fd_pr__nfet_01v8 ad=0.145 pd=1.29 as=0.145 ps=1.29 w=1 l=0.3
X173 out.t192 carray_0.n6.t47 sky130_fd_pr__cap_mim_m3_1 l=2 w=2
X174 out.t193 carray_0.n7.t90 sky130_fd_pr__cap_mim_m3_1 l=2 w=2
X175 out.t77 a_44621_6352.t10 vin.t77 vdd.t136 sky130_fd_pr__pfet_01v8 ad=0.145 pd=1.29 as=0.145 ps=1.29 w=1 l=0.3
X176 out.t194 carray_0.n6.t46 sky130_fd_pr__cap_mim_m3_1 l=2 w=2
X177 vin.t75 a_44621_2120.t11 out.t72 vdd.t132 sky130_fd_pr__pfet_01v8 ad=0.29 pd=2.58 as=0.145 ps=1.29 w=1 l=0.3
X178 out.t195 carray_0.n7.t89 sky130_fd_pr__cap_mim_m3_1 l=2 w=2
X179 vin.t54 enb out.t53 vdd.t48 sky130_fd_pr__pfet_01v8 ad=0.145 pd=1.29 as=0.145 ps=1.29 w=1 l=0.3
X180 out.t196 carray_0.n6.t45 sky130_fd_pr__cap_mim_m3_1 l=2 w=2
X181 out.t197 carray_0.n7.t88 sky130_fd_pr__cap_mim_m3_1 l=2 w=2
X182 out.t198 carray_0.n7.t87 sky130_fd_pr__cap_mim_m3_1 l=2 w=2
X183 out.t21 enb.t23 vin.t21 vdd.t29 sky130_fd_pr__pfet_01v8 ad=0.145 pd=1.29 as=0.145 ps=1.29 w=1 l=0.3
X184 out.t199 carray_0.n7.t86 sky130_fd_pr__cap_mim_m3_1 l=2 w=2
X185 vdd.t97 sample.t11 enb.t12 vdd.t96 sky130_fd_pr__pfet_01v8_hvt ad=0.135 pd=1.27 as=0.135 ps=1.27 w=1 l=0.15
X186 vdd.t95 sample.t12 enb vdd.t94 sky130_fd_pr__pfet_01v8_hvt ad=0.135 pd=1.27 as=0.135 ps=1.27 w=1 l=0.15
X187 out.t200 carray_0.n7.t85 sky130_fd_pr__cap_mim_m3_1 l=2 w=2
X188 vdd ctl7.t0 carray_0.n7.t0 vdd sky130_fd_pr__pfet_01v8_hvt ad=0.26 pd=2.52 as=0.135 ps=1.27 w=1 l=0.15
X189 out.t201 carray_0.n7.t84 sky130_fd_pr__cap_mim_m3_1 l=2 w=2
X190 out.t202 carray_0.n7.t83 sky130_fd_pr__cap_mim_m3_1 l=2 w=2
X191 out.t203 carray_0.n6.t44 sky130_fd_pr__cap_mim_m3_1 l=2 w=2
X192 carray_0.n1.t4 ctl1.t2 vdd vdd sky130_fd_pr__pfet_01v8_hvt ad=0.135 pd=1.27 as=0.26 ps=2.52 w=1 l=0.15
X193 enb.t10 sample.t13 vdd.t93 vdd.t92 sky130_fd_pr__pfet_01v8_hvt ad=0.135 pd=1.27 as=0.135 ps=1.27 w=1 l=0.15
X194 out.t204 carray_0.n7.t82 sky130_fd_pr__cap_mim_m3_1 l=2 w=2
X195 out.t205 carray_0.n7.t81 sky130_fd_pr__cap_mim_m3_1 l=2 w=2
X196 out.t206 carray_0.n7.t80 sky130_fd_pr__cap_mim_m3_1 l=2 w=2
X197 vdd ctl3.t0 carray_0.n3.t9 vdd sky130_fd_pr__pfet_01v8_hvt ad=0.26 pd=2.52 as=0.135 ps=1.27 w=1 l=0.15
X198 out.t8 en_buf vin.t9 vss.t10 sky130_fd_pr__nfet_01v8 ad=0.145 pd=1.29 as=0.29 ps=2.58 w=1 l=0.3
X199 carray_0.n4.t2 ctl4.t2 vdd vdd sky130_fd_pr__pfet_01v8_hvt ad=0.135 pd=1.27 as=0.26 ps=2.52 w=1 l=0.15
X200 vss.t107 sample.t14 a_44621_2120.t4 vss.t106 sky130_fd_pr__nfet_01v8 ad=0.169 pd=1.82 as=0.0878 ps=0.92 w=0.65 l=0.15
X201 out.t207 m2_43325_1830# sky130_fd_pr__cap_mim_m3_1 l=2 w=2
X202 vdd.t153 vss.t166 vdd.t152 vdd.t151 sky130_fd_pr__pfet_01v8_hvt ad=0.226 pd=2.26 as=0 ps=0 w=0.87 l=2.89
X203 out.t208 m2_10825_1830# sky130_fd_pr__cap_mim_m3_1 l=2 w=2
X204 out.t75 a_44621_2120.t12 vin.t74 vdd.t131 sky130_fd_pr__pfet_01v8 ad=0.145 pd=1.29 as=0.145 ps=1.29 w=1 l=0.3
X205 out.t209 m2_14725_1830# sky130_fd_pr__cap_mim_m3_1 l=2 w=2
X206 out.t210 m2_18625_1830# sky130_fd_pr__cap_mim_m3_1 l=2 w=2
X207 carray_0.n7.t1 ctl7.t1 vdd vdd sky130_fd_pr__pfet_01v8_hvt ad=0.135 pd=1.27 as=0.26 ps=2.52 w=1 l=0.15
X208 out.t211 carray_0.n6.t43 sky130_fd_pr__cap_mim_m3_1 l=2 w=2
X209 out.t212 m2_43325_2670# sky130_fd_pr__cap_mim_m3_1 l=2 w=2
X210 out.t213 carray_0.n5.t19 sky130_fd_pr__cap_mim_m3_1 l=2 w=2
X211 out.t214 carray_0.n7.t79 sky130_fd_pr__cap_mim_m3_1 l=2 w=2
X212 out.t215 carray_0.n7.t78 sky130_fd_pr__cap_mim_m3_1 l=2 w=2
X213 vss.t16 a_44621_6352.t11 a_45464_6355# vss.t15 sky130_fd_pr__nfet_01v8 ad=0.169 pd=1.82 as=0.0878 ps=0.92 w=0.65 l=0.15
X214 out.t216 m2_19925_1830# sky130_fd_pr__cap_mim_m3_1 l=2 w=2
X215 out.t217 m2_36825_9390# sky130_fd_pr__cap_mim_m3_1 l=2 w=2
X216 out.t218 m2_43325_3510# sky130_fd_pr__cap_mim_m3_1 l=2 w=2
X217 en_buf.t11 enb.t24 vdd.t18 vdd.t17 sky130_fd_pr__pfet_01v8_hvt ad=0.135 pd=1.27 as=0.26 ps=2.52 w=1 l=0.15
X218 vin.t31 a_45464_6355# out.t25 vss.t42 sky130_fd_pr__nfet_01v8 ad=0.145 pd=1.29 as=0.145 ps=1.29 w=1 l=0.3
X219 out.t219 carray_0.n5.t18 sky130_fd_pr__cap_mim_m3_1 l=2 w=2
X220 out.t220 carray_0.n7.t77 sky130_fd_pr__cap_mim_m3_1 l=2 w=2
X221 out.t221 carray_0.n7.t76 sky130_fd_pr__cap_mim_m3_1 l=2 w=2
X222 en_buf enb vdd.t47 vdd.t46 sky130_fd_pr__pfet_01v8_hvt ad=0.135 pd=1.27 as=0.26 ps=2.52 w=1 l=0.15
X223 out.t222 carray_0.n7.t75 sky130_fd_pr__cap_mim_m3_1 l=2 w=2
X224 vin.t44 a_45464_2123# out.t37 vss.t60 sky130_fd_pr__nfet_01v8 ad=0.145 pd=1.29 as=0.145 ps=1.29 w=1 l=0.3
X225 out.t223 carray_0.n7.t74 sky130_fd_pr__cap_mim_m3_1 l=2 w=2
X226 out.t224 carray_0.n7.t73 sky130_fd_pr__cap_mim_m3_1 l=2 w=2
X227 out.t34 a_45464_6355# vin.t30 vss.t41 sky130_fd_pr__nfet_01v8 ad=0.145 pd=1.29 as=0.145 ps=1.29 w=1 l=0.3
X228 out.t39 a_45464_2123# vin.t43 vss.t59 sky130_fd_pr__nfet_01v8 ad=0.145 pd=1.29 as=0.145 ps=1.29 w=1 l=0.3
X229 out.t225 carray_0.n4.t11 sky130_fd_pr__cap_mim_m3_1 l=2 w=2
X230 out.t226 carray_0.n7.t72 sky130_fd_pr__cap_mim_m3_1 l=2 w=2
X231 out.t227 carray_0.n6.t42 sky130_fd_pr__cap_mim_m3_1 l=2 w=2
X232 vin.t73 a_44621_2120.t13 out.t74 vdd.t130 sky130_fd_pr__pfet_01v8 ad=0.145 pd=1.29 as=0.145 ps=1.29 w=1 l=0.3
X233 out.t228 m2_42025_9390# sky130_fd_pr__cap_mim_m3_1 l=2 w=2
X234 out.t229 carray_0.n7.t71 sky130_fd_pr__cap_mim_m3_1 l=2 w=2
X235 out.t230 m2_17325_9390# sky130_fd_pr__cap_mim_m3_1 l=2 w=2
X236 out.t231 m2_13425_9390# sky130_fd_pr__cap_mim_m3_1 l=2 w=2
X237 out.t1 a_44621_6352.t12 vin.t1 vdd.t3 sky130_fd_pr__pfet_01v8 ad=0.145 pd=1.29 as=0.145 ps=1.29 w=1 l=0.3
X238 out.t232 carray_0.n4.t10 sky130_fd_pr__cap_mim_m3_1 l=2 w=2
X239 out.t233 carray_0.n7.t70 sky130_fd_pr__cap_mim_m3_1 l=2 w=2
X240 out.t15 enb.t25 vin.t15 vdd.t20 sky130_fd_pr__pfet_01v8 ad=0.145 pd=1.29 as=0.145 ps=1.29 w=1 l=0.3
X241 a_45464_6355# a_44621_6352.t13 vss.t50 vss.t49 sky130_fd_pr__nfet_01v8 ad=0.0878 pd=0.92 as=0.0878 ps=0.92 w=0.65 l=0.15
X242 a_45464_2123# a_44621_2120.t14 vss.t152 vss.t151 sky130_fd_pr__nfet_01v8 ad=0.0878 pd=0.92 as=0.0878 ps=0.92 w=0.65 l=0.15
X243 out.t234 carray_0.n7.t69 sky130_fd_pr__cap_mim_m3_1 l=2 w=2
X244 out.t235 carray_0.n7.t68 sky130_fd_pr__cap_mim_m3_1 l=2 w=2
X245 out.t236 carray_0.n1.t0 sky130_fd_pr__cap_mim_m3_1 l=2 w=2
X246 out.t237 carray_0.n6.t41 sky130_fd_pr__cap_mim_m3_1 l=2 w=2
X247 a_44621_6352.t3 sample.t15 vss.t105 vss.t104 sky130_fd_pr__nfet_01v8 ad=0.0878 pd=0.92 as=0.0878 ps=0.92 w=0.65 l=0.15
X248 vin.t29 a_45464_6355# out.t28 vss.t40 sky130_fd_pr__nfet_01v8 ad=0.145 pd=1.29 as=0.145 ps=1.29 w=1 l=0.3
X249 out.t238 carray_0.n6.t40 sky130_fd_pr__cap_mim_m3_1 l=2 w=2
X250 out.t239 carray_0.n2.t2 sky130_fd_pr__cap_mim_m3_1 l=2 w=2
X251 vin.t42 a_45464_2123# out.t46 vss.t58 sky130_fd_pr__nfet_01v8 ad=0.145 pd=1.29 as=0.145 ps=1.29 w=1 l=0.3
X252 out.t240 m2_43325_4350# sky130_fd_pr__cap_mim_m3_1 l=2 w=2
X253 vss.t101 sample.t16 a_44621_6352.t2 vss.t100 sky130_fd_pr__nfet_01v8 ad=0.169 pd=1.82 as=0.0878 ps=0.92 w=0.65 l=0.15
X254 out.t241 carray_0.n5.t17 sky130_fd_pr__cap_mim_m3_1 l=2 w=2
X255 out.t242 m2_1725_1830# sky130_fd_pr__cap_mim_m3_1 l=2 w=2
X256 out.t243 m2_5625_1830# sky130_fd_pr__cap_mim_m3_1 l=2 w=2
X257 out.t244 carray_0.n7.t67 sky130_fd_pr__cap_mim_m3_1 l=2 w=2
X258 out.t245 carray_0.n7.t66 sky130_fd_pr__cap_mim_m3_1 l=2 w=2
X259 out.t246 m2_9525_1830# sky130_fd_pr__cap_mim_m3_1 l=2 w=2
X260 vin.t72 a_44621_2120.t15 out.t71 vdd.t129 sky130_fd_pr__pfet_01v8 ad=0.145 pd=1.29 as=0.145 ps=1.29 w=1 l=0.3
X261 out.t247 carray_0.n6.t39 sky130_fd_pr__cap_mim_m3_1 l=2 w=2
X262 out.t248 carray_0.n3.t6 sky130_fd_pr__cap_mim_m3_1 l=2 w=2
X263 enb.t2 sample.t17 vss.t103 vss.t102 sky130_fd_pr__nfet_01v8 ad=0.0878 pd=0.92 as=0.169 ps=1.82 w=0.65 l=0.15
X264 enb sample.t18 vss.t99 vss.t98 sky130_fd_pr__nfet_01v8 ad=0.0878 pd=0.92 as=0.169 ps=1.82 w=0.65 l=0.15
X265 out.t249 m2_43325_5190# sky130_fd_pr__cap_mim_m3_1 l=2 w=2
X266 out.t250 carray_0.n7.t65 sky130_fd_pr__cap_mim_m3_1 l=2 w=2
X267 out.t251 carray_0.n5.t16 sky130_fd_pr__cap_mim_m3_1 l=2 w=2
X268 out.t252 m2_425_6030# sky130_fd_pr__cap_mim_m3_1 l=2 w=2
X269 out.t253 carray_0.n7.t64 sky130_fd_pr__cap_mim_m3_1 l=2 w=2
X270 out.t254 carray_0.n7.t63 sky130_fd_pr__cap_mim_m3_1 l=2 w=2
X271 out.t255 carray_0.n7.t62 sky130_fd_pr__cap_mim_m3_1 l=2 w=2
X272 out.t256 carray_0.n7.t61 sky130_fd_pr__cap_mim_m3_1 l=2 w=2
X273 out.t257 carray_0.n4.t9 sky130_fd_pr__cap_mim_m3_1 l=2 w=2
X274 vss.t77 ctl7.t2 carray_0.n7.t131 vss.t76 sky130_fd_pr__nfet_01v8 ad=0.169 pd=1.82 as=0.0878 ps=0.92 w=0.65 l=0.15
X275 out.t258 carray_0.n7.t60 sky130_fd_pr__cap_mim_m3_1 l=2 w=2
X276 out.t259 m2_425_6870# sky130_fd_pr__cap_mim_m3_1 l=2 w=2
X277 out.t260 carray_0.n7.t59 sky130_fd_pr__cap_mim_m3_1 l=2 w=2
X278 carray_0.n1.t2 ctl1.t3 vss.t83 vss.t82 sky130_fd_pr__nfet_01v8 ad=0.0878 pd=0.92 as=0.169 ps=1.82 w=0.65 l=0.15
X279 out.t261 carray_0.n7.t58 sky130_fd_pr__cap_mim_m3_1 l=2 w=2
X280 out.t262 carray_0.n4.t8 sky130_fd_pr__cap_mim_m3_1 l=2 w=2
X281 out.t263 carray_0.n7.t57 sky130_fd_pr__cap_mim_m3_1 l=2 w=2
X282 out.t264 carray_0.n7.t56 sky130_fd_pr__cap_mim_m3_1 l=2 w=2
X283 out.t40 a_45464_2123# vin.t41 vss.t57 sky130_fd_pr__nfet_01v8 ad=0.145 pd=1.29 as=0.145 ps=1.29 w=1 l=0.3
X284 vss.t160 ctl3.t1 carray_0.n3.t10 vss.t159 sky130_fd_pr__nfet_01v8 ad=0.169 pd=1.82 as=0.0878 ps=0.92 w=0.65 l=0.15
X285 out.t265 m2_23825_1830# sky130_fd_pr__cap_mim_m3_1 l=2 w=2
X286 out.t266 m2_27725_1830# sky130_fd_pr__cap_mim_m3_1 l=2 w=2
X287 out.t267 m2_425_7710# sky130_fd_pr__cap_mim_m3_1 l=2 w=2
X288 carray_0.n4.t0 ctl4.t3 vss.t162 vss.t161 sky130_fd_pr__nfet_01v8 ad=0.0878 pd=0.92 as=0.169 ps=1.82 w=0.65 l=0.15
X289 out.t268 m2_4325_9390# sky130_fd_pr__cap_mim_m3_1 l=2 w=2
X290 out.t36 a_44621_6352.t14 vin.t36 vdd.t37 sky130_fd_pr__pfet_01v8 ad=0.145 pd=1.29 as=0.29 ps=2.58 w=1 l=0.3
X291 out.t67 a_44621_2120.t16 vin.t71 vdd.t128 sky130_fd_pr__pfet_01v8 ad=0.145 pd=1.29 as=0.29 ps=2.58 w=1 l=0.3
X292 out.t269 m2_8225_9390# sky130_fd_pr__cap_mim_m3_1 l=2 w=2
X293 out.t270 carray_0.n4.t7 sky130_fd_pr__cap_mim_m3_1 l=2 w=2
X294 out.t271 carray_0.n5.t15 sky130_fd_pr__cap_mim_m3_1 l=2 w=2
X295 vss.t47 a_44621_6352.t15 a_45464_6355# vss.t46 sky130_fd_pr__nfet_01v8 ad=0.0878 pd=0.92 as=0.0878 ps=0.92 w=0.65 l=0.15
X296 out.t272 m2_32925_1830# sky130_fd_pr__cap_mim_m3_1 l=2 w=2
X297 carray_0.n0.t1 ctl0.t2 vss.t25 vss.t24 sky130_fd_pr__nfet_01v8 ad=0.0878 pd=0.92 as=0.169 ps=1.82 w=0.65 l=0.15
X298 carray_0.n7.t130 ctl7.t3 vss.t75 vss.t74 sky130_fd_pr__nfet_01v8 ad=0.0878 pd=0.92 as=0.169 ps=1.82 w=0.65 l=0.15
X299 out.t273 carray_0.n4.t6 sky130_fd_pr__cap_mim_m3_1 l=2 w=2
X300 out.t274 carray_0.n5.t14 sky130_fd_pr__cap_mim_m3_1 l=2 w=2
X301 out.t275 carray_0.n3.t5 sky130_fd_pr__cap_mim_m3_1 l=2 w=2
X302 out.t276 carray_0.n6.t38 sky130_fd_pr__cap_mim_m3_1 l=2 w=2
X303 out.t277 carray_0.n5.t13 sky130_fd_pr__cap_mim_m3_1 l=2 w=2
X304 vdd.t91 sample.t19 a_44621_2120.t2 vdd.t90 sky130_fd_pr__pfet_01v8_hvt ad=0.26 pd=2.52 as=0.135 ps=1.27 w=1 l=0.15
X305 vin.t8 en_buf out.t12 vss.t9 sky130_fd_pr__nfet_01v8 ad=0.145 pd=1.29 as=0.145 ps=1.29 w=1 l=0.3
X306 out.t278 m2_22525_9390# sky130_fd_pr__cap_mim_m3_1 l=2 w=2
X307 out.t279 m2_26425_9390# sky130_fd_pr__cap_mim_m3_1 l=2 w=2
X308 out.t280 carray_0.n5.t12 sky130_fd_pr__cap_mim_m3_1 l=2 w=2
X309 vdd.t156 vss.t167 vdd.t155 vdd.t154 sky130_fd_pr__pfet_01v8_hvt ad=0.226 pd=2.26 as=0 ps=0 w=0.87 l=2.89
X310 out.t281 carray_0.n7.t55 sky130_fd_pr__cap_mim_m3_1 l=2 w=2
X311 out.t282 carray_0.n7.t54 sky130_fd_pr__cap_mim_m3_1 l=2 w=2
X312 vin.t28 a_45464_6355# out.t27 vss.t39 sky130_fd_pr__nfet_01v8 ad=0.29 pd=2.58 as=0.145 ps=1.29 w=1 l=0.3
X313 a_45464_6355# a_44621_6352.t16 vss.t4 vss.t3 sky130_fd_pr__nfet_01v8 ad=0.0878 pd=0.92 as=0.169 ps=1.82 w=0.65 l=0.15
X314 out.t283 carray_0.n7.t53 sky130_fd_pr__cap_mim_m3_1 l=2 w=2
X315 out.t58 enb vin.t53 vdd.t45 sky130_fd_pr__pfet_01v8 ad=0.145 pd=1.29 as=0.145 ps=1.29 w=1 l=0.3
X316 out.t78 a_44621_6352.t17 vin.t78 vdd.t159 sky130_fd_pr__pfet_01v8 ad=0.145 pd=1.29 as=0.145 ps=1.29 w=1 l=0.3
X317 out.t284 m2_425_8550# sky130_fd_pr__cap_mim_m3_1 l=2 w=2
X318 vdd.t73 a_44621_6352.t18 a_45464_6355# vdd.t72 sky130_fd_pr__pfet_01v8_hvt ad=0.26 pd=2.52 as=0.135 ps=1.27 w=1 l=0.15
X319 out.t285 carray_0.n7.t52 sky130_fd_pr__cap_mim_m3_1 l=2 w=2
X320 out.t286 carray_0.n7.t51 sky130_fd_pr__cap_mim_m3_1 l=2 w=2
X321 out.t287 carray_0.n6.t37 sky130_fd_pr__cap_mim_m3_1 l=2 w=2
X322 out.t288 carray_0.n7.t50 sky130_fd_pr__cap_mim_m3_1 l=2 w=2
X323 out.t289 carray_0.n7.t49 sky130_fd_pr__cap_mim_m3_1 l=2 w=2
X324 out.t290 carray_0.n7.t48 sky130_fd_pr__cap_mim_m3_1 l=2 w=2
X325 vss.t137 vdd.t167 vss.t136 vss.t135 sky130_fd_pr__nfet_01v8 ad=0.143 pd=1.62 as=0 ps=0 w=0.55 l=2.89
X326 out.t291 m2_425_9390# sky130_fd_pr__cap_mim_m3_1 l=2 w=2
X327 out.t292 carray_0.n7.t47 sky130_fd_pr__cap_mim_m3_1 l=2 w=2
X328 out.t293 carray_0.n6.t36 sky130_fd_pr__cap_mim_m3_1 l=2 w=2
X329 out.t294 carray_0.n7.t46 sky130_fd_pr__cap_mim_m3_1 l=2 w=2
X330 out.t295 carray_0.n4.t5 sky130_fd_pr__cap_mim_m3_1 l=2 w=2
X331 out.t296 carray_0.n5.t11 sky130_fd_pr__cap_mim_m3_1 l=2 w=2
X332 out.t297 carray_0.n6.t35 sky130_fd_pr__cap_mim_m3_1 l=2 w=2
X333 out.t298 carray_0.n5.t10 sky130_fd_pr__cap_mim_m3_1 l=2 w=2
X334 vdd ctl6.t0 carray_0.n6.t1 vdd sky130_fd_pr__pfet_01v8_hvt ad=0.26 pd=2.52 as=0.135 ps=1.27 w=1 l=0.15
X335 out.t299 carray_0.n7.t45 sky130_fd_pr__cap_mim_m3_1 l=2 w=2
X336 out.t300 carray_0.n6.t34 sky130_fd_pr__cap_mim_m3_1 l=2 w=2
X337 out.t301 carray_0.n7.t44 sky130_fd_pr__cap_mim_m3_1 l=2 w=2
X338 a_45464_6355# a_44621_6352.t19 vdd.t26 vdd.t25 sky130_fd_pr__pfet_01v8_hvt ad=0.135 pd=1.27 as=0.135 ps=1.27 w=1 l=0.15
X339 out.t302 carray_0.n5.t9 sky130_fd_pr__cap_mim_m3_1 l=2 w=2
X340 out.t303 carray_0.n4.t4 sky130_fd_pr__cap_mim_m3_1 l=2 w=2
X341 a_45464_2123# a_44621_2120.t17 vdd.t127 vdd.t126 sky130_fd_pr__pfet_01v8_hvt ad=0.135 pd=1.27 as=0.135 ps=1.27 w=1 l=0.15
X342 out.t304 carray_0.n5.t8 sky130_fd_pr__cap_mim_m3_1 l=2 w=2
X343 out.t305 carray_0.n6.t33 sky130_fd_pr__cap_mim_m3_1 l=2 w=2
X344 out.t306 carray_0.n5.t7 sky130_fd_pr__cap_mim_m3_1 l=2 w=2
X345 vdd.t139 vss.t168 vdd.t138 vdd.t137 sky130_fd_pr__pfet_01v8_hvt ad=0.226 pd=2.26 as=0 ps=0 w=0.87 l=0.59
X346 vdd.t142 vss.t169 vdd.t141 vdd.t140 sky130_fd_pr__pfet_01v8_hvt ad=0.226 pd=2.26 as=0 ps=0 w=0.87 l=0.59
X347 out.t307 carray_0.n5.t6 sky130_fd_pr__cap_mim_m3_1 l=2 w=2
X348 out.t308 carray_0.n6.t32 sky130_fd_pr__cap_mim_m3_1 l=2 w=2
X349 out.t309 carray_0.n5.t5 sky130_fd_pr__cap_mim_m3_1 l=2 w=2
X350 a_44621_6352.t6 sample.t20 vdd.t89 vdd.t88 sky130_fd_pr__pfet_01v8_hvt ad=0.135 pd=1.27 as=0.135 ps=1.27 w=1 l=0.15
X351 out.t310 m2_36825_1830# sky130_fd_pr__cap_mim_m3_1 l=2 w=2
X352 out.t79 en_buf.t20 vin.t79 vss.t163 sky130_fd_pr__nfet_01v8 ad=0.145 pd=1.29 as=0.29 ps=2.58 w=1 l=0.3
X353 vdd.t87 sample.t21 a_44621_6352.t5 vdd.t86 sky130_fd_pr__pfet_01v8_hvt ad=0.26 pd=2.52 as=0.135 ps=1.27 w=1 l=0.15
X354 vin.t24 en_buf.t21 out.t24 vss.t29 sky130_fd_pr__nfet_01v8 ad=0.145 pd=1.29 as=0.145 ps=1.29 w=1 l=0.3
X355 vin.t7 en_buf out.t6 vss.t8 sky130_fd_pr__nfet_01v8 ad=0.145 pd=1.29 as=0.145 ps=1.29 w=1 l=0.3
X356 out.t311 carray_0.n6.t31 sky130_fd_pr__cap_mim_m3_1 l=2 w=2
X357 vin.t27 a_45464_6355# out.t31 vss.t38 sky130_fd_pr__nfet_01v8 ad=0.145 pd=1.29 as=0.145 ps=1.29 w=1 l=0.3
X358 out.t312 m2_42025_1830# sky130_fd_pr__cap_mim_m3_1 l=2 w=2
X359 enb.t9 sample.t22 vdd.t85 vdd.t84 sky130_fd_pr__pfet_01v8_hvt ad=0.135 pd=1.27 as=0.26 ps=2.52 w=1 l=0.15
X360 out.t49 enb vin.t52 vdd.t44 sky130_fd_pr__pfet_01v8 ad=0.145 pd=1.29 as=0.145 ps=1.29 w=1 l=0.3
X361 out.t313 m2_13425_1830# sky130_fd_pr__cap_mim_m3_1 l=2 w=2
X362 enb sample.t23 vdd.t83 vdd.t82 sky130_fd_pr__pfet_01v8_hvt ad=0.135 pd=1.27 as=0.26 ps=2.52 w=1 l=0.15
X363 out.t314 m2_17325_1830# sky130_fd_pr__cap_mim_m3_1 l=2 w=2
X364 vin.t22 enb.t26 out.t22 vdd.t30 sky130_fd_pr__pfet_01v8 ad=0.145 pd=1.29 as=0.145 ps=1.29 w=1 l=0.3
X365 out.t315 carray_0.n6.t30 sky130_fd_pr__cap_mim_m3_1 l=2 w=2
X366 out.t316 carray_0.n6.t29 sky130_fd_pr__cap_mim_m3_1 l=2 w=2
X367 out.t317 carray_0.n7.t43 sky130_fd_pr__cap_mim_m3_1 l=2 w=2