* NGSPICE file created from sarlogic.ext - technology: sky130B

.subckt sky130_fd_sc_hd__decap_4 VGND VPWR VPB VNB
X0 VGND VPWR VGND VNB sky130_fd_pr__nfet_01v8 ad=0.286 pd=3.24 as=0.143 ps=1.62 w=0.55 l=1.05
X1 VPWR VGND VPWR VPB sky130_fd_pr__pfet_01v8_hvt ad=0.452 pd=4.52 as=0.226 ps=2.26 w=0.87 l=1.05
.ends

.subckt sky130_fd_sc_hd__decap_8 VPWR VGND VPB VNB
X0 VGND VPWR VGND VNB sky130_fd_pr__nfet_01v8 ad=0.286 pd=3.24 as=0.143 ps=1.62 w=0.55 l=2.89
X1 VPWR VGND VPWR VPB sky130_fd_pr__pfet_01v8_hvt ad=0.452 pd=4.52 as=0.226 ps=2.26 w=0.87 l=2.89
.ends

.subckt sky130_fd_sc_hd__inv_2 VPWR VGND VPB VNB Y A
X0 VPWR A Y VPB sky130_fd_pr__pfet_01v8_hvt ad=0.26 pd=2.52 as=0.135 ps=1.27 w=1 l=0.15
X1 Y A VGND VNB sky130_fd_pr__nfet_01v8 ad=0.0878 pd=0.92 as=0.169 ps=1.82 w=0.65 l=0.15
X2 Y A VPWR VPB sky130_fd_pr__pfet_01v8_hvt ad=0.135 pd=1.27 as=0.26 ps=2.52 w=1 l=0.15
X3 VGND A Y VNB sky130_fd_pr__nfet_01v8 ad=0.169 pd=1.82 as=0.0878 ps=0.92 w=0.65 l=0.15
.ends

.subckt sky130_fd_sc_hd__dfstp_1 VPWR VGND VPB VNB Q SET_B D CLK
X0 VPWR a_1032_373# a_1602_7# VPB sky130_fd_pr__pfet_01v8_hvt ad=0.149 pd=1.33 as=0.166 ps=1.8 w=0.64 l=0.15
X1 a_1032_373# a_193_7# a_1056_7# VNB sky130_fd_pr__nfet_01v8 ad=0.0693 pd=0.75 as=0.0441 ps=0.63 w=0.42 l=0.15
X2 VPWR SET_B a_1032_373# VPB sky130_fd_pr__pfet_01v8_hvt ad=0.123 pd=1.17 as=0.109 ps=1.36 w=0.42 l=0.15
X3 a_476_7# a_27_7# a_381_7# VNB sky130_fd_pr__nfet_01v8 ad=0.072 pd=0.76 as=0.0935 ps=0.965 w=0.36 l=0.15
X4 a_1296_7# a_1182_221# a_1224_7# VNB sky130_fd_pr__nfet_01v8 ad=0.0483 pd=0.65 as=0.0441 ps=0.63 w=0.42 l=0.15
X5 a_1032_373# a_27_7# a_956_373# VPB sky130_fd_pr__pfet_01v8_hvt ad=0.0819 pd=0.81 as=0.0483 ps=0.65 w=0.42 l=0.15
X6 a_1182_221# a_1032_373# VPWR VPB sky130_fd_pr__pfet_01v8_hvt ad=0.218 pd=2.2 as=0.123 ps=1.17 w=0.84 l=0.15
X7 Q a_1602_7# VGND VNB sky130_fd_pr__nfet_01v8 ad=0.169 pd=1.82 as=0.097 ps=0.975 w=0.65 l=0.15
X8 a_652_n19# a_476_7# a_796_7# VNB sky130_fd_pr__nfet_01v8 ad=0.109 pd=1.36 as=0.0441 ps=0.63 w=0.42 l=0.15
X9 a_1140_373# a_193_7# a_1032_373# VPB sky130_fd_pr__pfet_01v8_hvt ad=0.0441 pd=0.63 as=0.0819 ps=0.81 w=0.42 l=0.15
X10 a_586_7# a_193_7# a_476_7# VNB sky130_fd_pr__nfet_01v8 ad=0.0671 pd=0.75 as=0.072 ps=0.76 w=0.36 l=0.15
X11 VPWR CLK a_27_7# VPB sky130_fd_pr__pfet_01v8_hvt ad=0.0864 pd=0.91 as=0.166 ps=1.8 w=0.64 l=0.15
X12 a_193_7# a_27_7# VGND VNB sky130_fd_pr__nfet_01v8 ad=0.109 pd=1.36 as=0.0567 ps=0.69 w=0.42 l=0.15
X13 a_381_7# D VGND VNB sky130_fd_pr__nfet_01v8 ad=0.0935 pd=0.965 as=0.166 ps=1.8 w=0.64 l=0.15
X14 a_1224_7# a_27_7# a_1032_373# VNB sky130_fd_pr__nfet_01v8 ad=0.0441 pd=0.63 as=0.0693 ps=0.75 w=0.42 l=0.15
X15 a_1182_221# a_1032_373# VGND VNB sky130_fd_pr__nfet_01v8 ad=0.14 pd=1.6 as=0.114 ps=1.01 w=0.54 l=0.15
X16 VGND a_1032_373# a_1602_7# VNB sky130_fd_pr__nfet_01v8 ad=0.097 pd=0.975 as=0.109 ps=1.36 w=0.42 l=0.15
X17 a_956_373# a_476_7# VPWR VPB sky130_fd_pr__pfet_01v8_hvt ad=0.0483 pd=0.65 as=0.0567 ps=0.69 w=0.42 l=0.15
X18 Q a_1602_7# VPWR VPB sky130_fd_pr__pfet_01v8_hvt ad=0.26 pd=2.52 as=0.149 ps=1.33 w=1 l=0.15
X19 a_796_7# SET_B VGND VNB sky130_fd_pr__nfet_01v8 ad=0.0441 pd=0.63 as=0.0882 ps=0.84 w=0.42 l=0.15
X20 VPWR a_476_7# a_652_n19# VPB sky130_fd_pr__pfet_01v8_hvt ad=0.0567 pd=0.69 as=0.0567 ps=0.69 w=0.42 l=0.15
X21 VGND SET_B a_1296_7# VNB sky130_fd_pr__nfet_01v8 ad=0.114 pd=1.01 as=0.0483 ps=0.65 w=0.42 l=0.15
X22 VGND a_652_n19# a_586_7# VNB sky130_fd_pr__nfet_01v8 ad=0.0882 pd=0.84 as=0.0671 ps=0.75 w=0.42 l=0.15
X23 a_381_7# D VPWR VPB sky130_fd_pr__pfet_01v8_hvt ad=0.125 pd=1.17 as=0.218 ps=2.2 w=0.84 l=0.15
X24 a_652_n19# SET_B VPWR VPB sky130_fd_pr__pfet_01v8_hvt ad=0.0567 pd=0.69 as=0.0798 ps=0.8 w=0.42 l=0.15
X25 a_562_373# a_27_7# a_476_7# VPB sky130_fd_pr__pfet_01v8_hvt ad=0.0945 pd=0.87 as=0.0567 ps=0.69 w=0.42 l=0.15
X26 VGND CLK a_27_7# VNB sky130_fd_pr__nfet_01v8 ad=0.0567 pd=0.69 as=0.109 ps=1.36 w=0.42 l=0.15
X27 VPWR a_1182_221# a_1140_373# VPB sky130_fd_pr__pfet_01v8_hvt ad=0.109 pd=1.36 as=0.0441 ps=0.63 w=0.42 l=0.15
X28 a_476_7# a_193_7# a_381_7# VPB sky130_fd_pr__pfet_01v8_hvt ad=0.0567 pd=0.69 as=0.125 ps=1.17 w=0.42 l=0.15
X29 a_1056_7# a_476_7# VGND VNB sky130_fd_pr__nfet_01v8 ad=0.0441 pd=0.63 as=0.109 ps=1.36 w=0.42 l=0.15
X30 a_193_7# a_27_7# VPWR VPB sky130_fd_pr__pfet_01v8_hvt ad=0.166 pd=1.8 as=0.0864 ps=0.91 w=0.64 l=0.15
X31 VPWR a_652_n19# a_562_373# VPB sky130_fd_pr__pfet_01v8_hvt ad=0.0798 pd=0.8 as=0.0945 ps=0.87 w=0.42 l=0.15
.ends

.subckt sky130_fd_sc_hd__decap_6 VPWR VGND VPB VNB
X0 VGND VPWR VGND VNB sky130_fd_pr__nfet_01v8 ad=0.286 pd=3.24 as=0.143 ps=1.62 w=0.55 l=1.97
X1 VPWR VGND VPWR VPB sky130_fd_pr__pfet_01v8_hvt ad=0.452 pd=4.52 as=0.226 ps=2.26 w=0.87 l=1.97
.ends

.subckt sky130_fd_sc_hd__a32o_1 VGND VPWR VPB VNB X A3 A2 A1 B1 B2
X0 a_346_7# A2 a_256_7# VNB sky130_fd_pr__nfet_01v8 ad=0.146 pd=1.1 as=0.0975 ps=0.95 w=0.65 l=0.15
X1 a_250_257# A1 VPWR VPB sky130_fd_pr__pfet_01v8_hvt ad=0.185 pd=1.37 as=0.225 ps=1.45 w=1 l=0.15
X2 a_93_n19# A1 a_346_7# VNB sky130_fd_pr__nfet_01v8 ad=0.143 pd=1.09 as=0.146 ps=1.1 w=0.65 l=0.15
X3 a_93_n19# B1 a_250_257# VPB sky130_fd_pr__pfet_01v8_hvt ad=0.14 pd=1.28 as=0.185 ps=1.37 w=1 l=0.15
X4 VGND B2 a_584_7# VNB sky130_fd_pr__nfet_01v8 ad=0.172 pd=1.83 as=0.0683 ps=0.86 w=0.65 l=0.15
X5 VPWR a_93_n19# X VPB sky130_fd_pr__pfet_01v8_hvt ad=0.243 pd=1.49 as=0.33 ps=2.66 w=1 l=0.15
X6 VGND a_93_n19# X VNB sky130_fd_pr__nfet_01v8 ad=0.167 pd=1.16 as=0.214 ps=1.96 w=0.65 l=0.15
X7 a_250_257# B2 a_93_n19# VPB sky130_fd_pr__pfet_01v8_hvt ad=0.265 pd=2.53 as=0.14 ps=1.28 w=1 l=0.15
X8 a_256_7# A3 VGND VNB sky130_fd_pr__nfet_01v8 ad=0.0975 pd=0.95 as=0.167 ps=1.16 w=0.65 l=0.15
X9 a_250_257# A3 VPWR VPB sky130_fd_pr__pfet_01v8_hvt ad=0.165 pd=1.33 as=0.243 ps=1.49 w=1 l=0.15
X10 a_584_7# B1 a_93_n19# VNB sky130_fd_pr__nfet_01v8 ad=0.0683 pd=0.86 as=0.143 ps=1.09 w=0.65 l=0.15
X11 VPWR A2 a_250_257# VPB sky130_fd_pr__pfet_01v8_hvt ad=0.225 pd=1.45 as=0.165 ps=1.33 w=1 l=0.15
.ends

.subckt sky130_fd_sc_hd__dfrtp_1 VGND VPWR VPB VNB CLK D RESET_B Q
X0 VGND a_1283_n19# a_1217_7# VNB sky130_fd_pr__nfet_01v8 ad=0.125 pd=1.01 as=0.0669 ps=0.75 w=0.42 l=0.15
X1 a_543_7# a_193_7# a_448_7# VPB sky130_fd_pr__pfet_01v8_hvt ad=0.0724 pd=0.765 as=0.0651 ps=0.73 w=0.42 l=0.15
X2 VPWR a_1283_n19# a_1270_373# VPB sky130_fd_pr__pfet_01v8_hvt ad=0.0819 pd=0.81 as=0.0567 ps=0.69 w=0.42 l=0.15
X3 VPWR a_1108_7# a_1283_n19# VPB sky130_fd_pr__pfet_01v8_hvt ad=0.113 pd=1.38 as=0.0567 ps=0.69 w=0.42 l=0.15
X4 a_1108_7# a_193_7# a_761_249# VNB sky130_fd_pr__nfet_01v8 ad=0.0711 pd=0.755 as=0.0999 ps=0.985 w=0.36 l=0.15
X5 a_1270_373# a_193_7# a_1108_7# VPB sky130_fd_pr__pfet_01v8_hvt ad=0.0567 pd=0.69 as=0.0588 ps=0.7 w=0.42 l=0.15
X6 a_1283_n19# RESET_B VPWR VPB sky130_fd_pr__pfet_01v8_hvt ad=0.0567 pd=0.69 as=0.0819 ps=0.81 w=0.42 l=0.15
X7 VPWR a_761_249# a_651_373# VPB sky130_fd_pr__pfet_01v8_hvt ad=0.0703 pd=0.755 as=0.116 ps=0.97 w=0.42 l=0.15
X8 a_543_7# a_27_7# a_448_7# VNB sky130_fd_pr__nfet_01v8 ad=0.0594 pd=0.69 as=0.066 ps=0.745 w=0.36 l=0.15
X9 Q a_1283_n19# VPWR VPB sky130_fd_pr__pfet_01v8_hvt ad=0.26 pd=2.52 as=0.301 ps=2.66 w=1 l=0.15
X10 VPWR CLK a_27_7# VPB sky130_fd_pr__pfet_01v8_hvt ad=0.0864 pd=0.91 as=0.166 ps=1.8 w=0.64 l=0.15
X11 a_193_7# a_27_7# VGND VNB sky130_fd_pr__nfet_01v8 ad=0.109 pd=1.36 as=0.0567 ps=0.69 w=0.42 l=0.15
X12 a_651_373# RESET_B VPWR VPB sky130_fd_pr__pfet_01v8_hvt ad=0.109 pd=1.36 as=0.0703 ps=0.755 w=0.42 l=0.15
X13 a_761_249# a_543_7# VPWR VPB sky130_fd_pr__pfet_01v8_hvt ad=0.129 pd=1.18 as=0.218 ps=2.2 w=0.84 l=0.15
X14 VGND RESET_B a_805_7# VNB sky130_fd_pr__nfet_01v8 ad=0.135 pd=1.15 as=0.0441 ps=0.63 w=0.42 l=0.15
X15 a_651_373# a_27_7# a_543_7# VPB sky130_fd_pr__pfet_01v8_hvt ad=0.116 pd=0.97 as=0.0724 ps=0.765 w=0.42 l=0.15
X16 a_1217_7# a_27_7# a_1108_7# VNB sky130_fd_pr__nfet_01v8 ad=0.0669 pd=0.75 as=0.0711 ps=0.755 w=0.36 l=0.15
X17 a_448_7# D VGND VNB sky130_fd_pr__nfet_01v8 ad=0.066 pd=0.745 as=0.221 ps=1.89 w=0.42 l=0.15
X18 a_639_7# a_193_7# a_543_7# VNB sky130_fd_pr__nfet_01v8 ad=0.14 pd=1.1 as=0.0594 ps=0.69 w=0.36 l=0.15
X19 Q a_1283_n19# VGND VNB sky130_fd_pr__nfet_01v8 ad=0.169 pd=1.82 as=0.209 ps=2.02 w=0.65 l=0.15
X20 a_448_7# D VPWR VPB sky130_fd_pr__pfet_01v8_hvt ad=0.0651 pd=0.73 as=0.109 ps=1.36 w=0.42 l=0.15
X21 a_1283_n19# a_1108_7# a_1462_7# VNB sky130_fd_pr__nfet_01v8 ad=0.109 pd=1.36 as=0.064 ps=0.725 w=0.42 l=0.15
X22 VGND CLK a_27_7# VNB sky130_fd_pr__nfet_01v8 ad=0.0567 pd=0.69 as=0.109 ps=1.36 w=0.42 l=0.15
X23 a_805_7# a_761_249# a_639_7# VNB sky130_fd_pr__nfet_01v8 ad=0.0441 pd=0.63 as=0.14 ps=1.1 w=0.42 l=0.15
X24 a_1462_7# RESET_B VGND VNB sky130_fd_pr__nfet_01v8 ad=0.064 pd=0.725 as=0.125 ps=1.01 w=0.42 l=0.15
X25 a_193_7# a_27_7# VPWR VPB sky130_fd_pr__pfet_01v8_hvt ad=0.166 pd=1.8 as=0.0864 ps=0.91 w=0.64 l=0.15
X26 a_1108_7# a_27_7# a_761_249# VPB sky130_fd_pr__pfet_01v8_hvt ad=0.0588 pd=0.7 as=0.129 ps=1.18 w=0.42 l=0.15
X27 a_761_249# a_543_7# VGND VNB sky130_fd_pr__nfet_01v8 ad=0.0999 pd=0.985 as=0.135 ps=1.15 w=0.64 l=0.15
.ends

.subckt sky130_fd_sc_hd__clkbuf_2 VGND VPWR VPB VNB A X
X0 VPWR A a_27_7# VPB sky130_fd_pr__pfet_01v8_hvt ad=0.162 pd=1.33 as=0.265 ps=2.53 w=1 l=0.15
X1 VGND A a_27_7# VNB sky130_fd_pr__nfet_01v8 ad=0.0683 pd=0.745 as=0.111 ps=1.37 w=0.42 l=0.15
X2 VPWR a_27_7# X VPB sky130_fd_pr__pfet_01v8_hvt ad=0.26 pd=2.52 as=0.135 ps=1.27 w=1 l=0.15
X3 X a_27_7# VPWR VPB sky130_fd_pr__pfet_01v8_hvt ad=0.135 pd=1.27 as=0.162 ps=1.33 w=1 l=0.15
X4 X a_27_7# VGND VNB sky130_fd_pr__nfet_01v8 ad=0.0567 pd=0.69 as=0.0683 ps=0.745 w=0.42 l=0.15
X5 VGND a_27_7# X VNB sky130_fd_pr__nfet_01v8 ad=0.109 pd=1.36 as=0.0567 ps=0.69 w=0.42 l=0.15
.ends

.subckt sky130_fd_sc_hd__or2_2 VPWR VGND VPB VNB X A B
X0 a_121_257# B a_39_257# VPB sky130_fd_pr__pfet_01v8_hvt ad=0.0441 pd=0.63 as=0.109 ps=1.36 w=0.42 l=0.15
X1 X a_39_257# VGND VNB sky130_fd_pr__nfet_01v8 ad=0.0878 pd=0.92 as=0.107 ps=1 w=0.65 l=0.15
X2 VGND a_39_257# X VNB sky130_fd_pr__nfet_01v8 ad=0.169 pd=1.82 as=0.0878 ps=0.92 w=0.65 l=0.15
X3 VGND A a_39_257# VNB sky130_fd_pr__nfet_01v8 ad=0.107 pd=1 as=0.0567 ps=0.69 w=0.42 l=0.15
X4 VPWR a_39_257# X VPB sky130_fd_pr__pfet_01v8_hvt ad=0.26 pd=2.52 as=0.135 ps=1.27 w=1 l=0.15
X5 X a_39_257# VPWR VPB sky130_fd_pr__pfet_01v8_hvt ad=0.135 pd=1.27 as=0.156 ps=1.36 w=1 l=0.15
X6 VPWR A a_121_257# VPB sky130_fd_pr__pfet_01v8_hvt ad=0.156 pd=1.36 as=0.0441 ps=0.63 w=0.42 l=0.15
X7 a_39_257# B VGND VNB sky130_fd_pr__nfet_01v8 ad=0.0567 pd=0.69 as=0.109 ps=1.36 w=0.42 l=0.15
.ends

.subckt sky130_fd_sc_hd__or2_1 VGND VPWR VPB VNB X A B
X0 a_68_257# B VGND VNB sky130_fd_pr__nfet_01v8 ad=0.0567 pd=0.69 as=0.109 ps=1.36 w=0.42 l=0.15
X1 a_150_257# B a_68_257# VPB sky130_fd_pr__pfet_01v8_hvt ad=0.0441 pd=0.63 as=0.109 ps=1.36 w=0.42 l=0.15
X2 VGND A a_68_257# VNB sky130_fd_pr__nfet_01v8 ad=0.1 pd=0.985 as=0.0567 ps=0.69 w=0.42 l=0.15
X3 X a_68_257# VGND VNB sky130_fd_pr__nfet_01v8 ad=0.169 pd=1.82 as=0.1 ps=0.985 w=0.65 l=0.15
X4 VPWR A a_150_257# VPB sky130_fd_pr__pfet_01v8_hvt ad=0.146 pd=1.34 as=0.0441 ps=0.63 w=0.42 l=0.15
X5 X a_68_257# VPWR VPB sky130_fd_pr__pfet_01v8_hvt ad=0.34 pd=2.68 as=0.146 ps=1.34 w=1 l=0.15
.ends

.subckt sky130_fd_sc_hd__a21oi_1 VPWR VGND VPB VNB A2 A1 B1 Y
X0 VGND A2 a_199_7# VNB sky130_fd_pr__nfet_01v8 ad=0.172 pd=1.83 as=0.0959 ps=0.945 w=0.65 l=0.15
X1 a_113_257# A2 VPWR VPB sky130_fd_pr__pfet_01v8_hvt ad=0.265 pd=2.53 as=0.147 ps=1.29 w=1 l=0.15
X2 a_199_7# A1 Y VNB sky130_fd_pr__nfet_01v8 ad=0.0959 pd=0.945 as=0.091 ps=0.93 w=0.65 l=0.15
X3 Y B1 VGND VNB sky130_fd_pr__nfet_01v8 ad=0.091 pd=0.93 as=0.172 ps=1.83 w=0.65 l=0.15
X4 VPWR A1 a_113_257# VPB sky130_fd_pr__pfet_01v8_hvt ad=0.147 pd=1.29 as=0.14 ps=1.28 w=1 l=0.15
X5 a_113_257# B1 Y VPB sky130_fd_pr__pfet_01v8_hvt ad=0.14 pd=1.28 as=0.265 ps=2.53 w=1 l=0.15
.ends

.subckt sky130_fd_sc_hd__mux2_1 VGND VPWR VPB VNB X A1 S A0
X0 VPWR a_76_159# X VPB sky130_fd_pr__pfet_01v8_hvt ad=0.158 pd=1.39 as=0.26 ps=2.52 w=1 l=0.15
X1 VPWR a_505_n19# a_535_334# VPB sky130_fd_pr__pfet_01v8_hvt ad=0.0693 pd=0.75 as=0.0441 ps=0.63 w=0.42 l=0.15
X2 a_505_n19# S VPWR VPB sky130_fd_pr__pfet_01v8_hvt ad=0.118 pd=1.4 as=0.0693 ps=0.75 w=0.42 l=0.15
X3 a_76_159# A1 a_218_7# VNB sky130_fd_pr__nfet_01v8 ad=0.0997 pd=0.895 as=0.0693 ps=0.75 w=0.42 l=0.15
X4 a_505_n19# S VGND VNB sky130_fd_pr__nfet_01v8 ad=0.109 pd=1.36 as=0.145 ps=1.11 w=0.42 l=0.15
X5 a_439_7# A0 a_76_159# VNB sky130_fd_pr__nfet_01v8 ad=0.0693 pd=0.75 as=0.0997 ps=0.895 w=0.42 l=0.15
X6 a_218_334# S VPWR VPB sky130_fd_pr__pfet_01v8_hvt ad=0.0767 pd=0.785 as=0.158 ps=1.39 w=0.42 l=0.15
X7 a_76_159# A0 a_218_334# VPB sky130_fd_pr__pfet_01v8_hvt ad=0.193 pd=1.34 as=0.0767 ps=0.785 w=0.42 l=0.15
X8 a_535_334# A1 a_76_159# VPB sky130_fd_pr__pfet_01v8_hvt ad=0.0441 pd=0.63 as=0.193 ps=1.34 w=0.42 l=0.15
X9 VGND a_505_n19# a_439_7# VNB sky130_fd_pr__nfet_01v8 ad=0.145 pd=1.11 as=0.0693 ps=0.75 w=0.42 l=0.15
X10 VGND a_76_159# X VNB sky130_fd_pr__nfet_01v8 ad=0.113 pd=1.04 as=0.169 ps=1.82 w=0.65 l=0.15
X11 a_218_7# S VGND VNB sky130_fd_pr__nfet_01v8 ad=0.0693 pd=0.75 as=0.113 ps=1.04 w=0.42 l=0.15
.ends

.subckt sky130_fd_sc_hd__decap_12 VGND VPWR VPB VNB
X0 VGND VPWR VGND VNB sky130_fd_pr__nfet_01v8 ad=0.286 pd=3.24 as=0.143 ps=1.62 w=0.55 l=4.73
X1 VPWR VGND VPWR VPB sky130_fd_pr__pfet_01v8_hvt ad=0.452 pd=4.52 as=0.226 ps=2.26 w=0.87 l=4.73
.ends

.subckt sky130_fd_sc_hd__o21ba_1 VGND VPWR VPB VNB B1_N A1 A2 X
X0 VGND A2 a_448_7# VNB sky130_fd_pr__nfet_01v8 ad=0.0878 pd=0.92 as=0.107 ps=0.98 w=0.65 l=0.15
X1 VPWR a_79_159# X VPB sky130_fd_pr__pfet_01v8_hvt ad=0.186 pd=1.41 as=0.26 ps=2.52 w=1 l=0.15
X2 a_222_53# B1_N VGND VNB sky130_fd_pr__nfet_01v8 ad=0.109 pd=1.36 as=0.1 ps=0.985 w=0.42 l=0.15
X3 a_448_7# A1 VGND VNB sky130_fd_pr__nfet_01v8 ad=0.172 pd=1.83 as=0.0878 ps=0.92 w=0.65 l=0.15
X4 VPWR A1 a_544_257# VPB sky130_fd_pr__pfet_01v8_hvt ad=0.28 pd=2.56 as=0.105 ps=1.21 w=1 l=0.15
X5 a_448_7# a_222_53# a_79_159# VNB sky130_fd_pr__nfet_01v8 ad=0.107 pd=0.98 as=0.169 ps=1.82 w=0.65 l=0.15
X6 a_222_53# B1_N VPWR VPB sky130_fd_pr__pfet_01v8_hvt ad=0.118 pd=1.4 as=0.186 ps=1.41 w=0.42 l=0.15
X7 a_79_159# a_222_53# VPWR VPB sky130_fd_pr__pfet_01v8_hvt ad=0.165 pd=1.33 as=0.3 ps=2.6 w=1 l=0.15
X8 a_544_257# A2 a_79_159# VPB sky130_fd_pr__pfet_01v8_hvt ad=0.105 pd=1.21 as=0.165 ps=1.33 w=1 l=0.15
X9 VGND a_79_159# X VNB sky130_fd_pr__nfet_01v8 ad=0.1 pd=0.985 as=0.169 ps=1.82 w=0.65 l=0.15
.ends

.subckt sky130_fd_sc_hd__buf_8 VGND VPWR VPB VNB A X
X0 X a_27_7# VGND VNB sky130_fd_pr__nfet_01v8 ad=0.0878 pd=0.92 as=0.0878 ps=0.92 w=0.65 l=0.15
X1 VGND a_27_7# X VNB sky130_fd_pr__nfet_01v8 ad=0.0878 pd=0.92 as=0.0878 ps=0.92 w=0.65 l=0.15
X2 X a_27_7# VGND VNB sky130_fd_pr__nfet_01v8 ad=0.0878 pd=0.92 as=0.0878 ps=0.92 w=0.65 l=0.15
X3 X a_27_7# VPWR VPB sky130_fd_pr__pfet_01v8_hvt ad=0.135 pd=1.27 as=0.135 ps=1.27 w=1 l=0.15
X4 VPWR A a_27_7# VPB sky130_fd_pr__pfet_01v8_hvt ad=0.135 pd=1.27 as=0.26 ps=2.52 w=1 l=0.15
X5 VGND a_27_7# X VNB sky130_fd_pr__nfet_01v8 ad=0.0878 pd=0.92 as=0.0878 ps=0.92 w=0.65 l=0.15
X6 X a_27_7# VGND VNB sky130_fd_pr__nfet_01v8 ad=0.0878 pd=0.92 as=0.0878 ps=0.92 w=0.65 l=0.15
X7 VGND a_27_7# X VNB sky130_fd_pr__nfet_01v8 ad=0.169 pd=1.82 as=0.0878 ps=0.92 w=0.65 l=0.15
X8 VPWR a_27_7# X VPB sky130_fd_pr__pfet_01v8_hvt ad=0.135 pd=1.27 as=0.135 ps=1.27 w=1 l=0.15
X9 a_27_7# A VGND VNB sky130_fd_pr__nfet_01v8 ad=0.0878 pd=0.92 as=0.0878 ps=0.92 w=0.65 l=0.15
X10 VGND A a_27_7# VNB sky130_fd_pr__nfet_01v8 ad=0.0878 pd=0.92 as=0.0878 ps=0.92 w=0.65 l=0.15
X11 X a_27_7# VPWR VPB sky130_fd_pr__pfet_01v8_hvt ad=0.135 pd=1.27 as=0.135 ps=1.27 w=1 l=0.15
X12 X a_27_7# VGND VNB sky130_fd_pr__nfet_01v8 ad=0.0878 pd=0.92 as=0.0878 ps=0.92 w=0.65 l=0.15
X13 VGND a_27_7# X VNB sky130_fd_pr__nfet_01v8 ad=0.0878 pd=0.92 as=0.0878 ps=0.92 w=0.65 l=0.15
X14 VPWR A a_27_7# VPB sky130_fd_pr__pfet_01v8_hvt ad=0.135 pd=1.27 as=0.135 ps=1.27 w=1 l=0.15
X15 VPWR a_27_7# X VPB sky130_fd_pr__pfet_01v8_hvt ad=0.26 pd=2.52 as=0.135 ps=1.27 w=1 l=0.15
X16 a_27_7# A VPWR VPB sky130_fd_pr__pfet_01v8_hvt ad=0.135 pd=1.27 as=0.135 ps=1.27 w=1 l=0.15
X17 X a_27_7# VPWR VPB sky130_fd_pr__pfet_01v8_hvt ad=0.135 pd=1.27 as=0.135 ps=1.27 w=1 l=0.15
X18 VPWR a_27_7# X VPB sky130_fd_pr__pfet_01v8_hvt ad=0.135 pd=1.27 as=0.135 ps=1.27 w=1 l=0.15
X19 VGND A a_27_7# VNB sky130_fd_pr__nfet_01v8 ad=0.0878 pd=0.92 as=0.169 ps=1.82 w=0.65 l=0.15
X20 X a_27_7# VPWR VPB sky130_fd_pr__pfet_01v8_hvt ad=0.135 pd=1.27 as=0.135 ps=1.27 w=1 l=0.15
X21 VPWR a_27_7# X VPB sky130_fd_pr__pfet_01v8_hvt ad=0.135 pd=1.27 as=0.135 ps=1.27 w=1 l=0.15
.ends

.subckt sky130_fd_sc_hd__dfrtp_4 VGND VPWR VPB VNB CLK D RESET_B Q
X0 VGND a_1283_n19# a_1217_7# VNB sky130_fd_pr__nfet_01v8 ad=0.125 pd=1.01 as=0.0669 ps=0.75 w=0.42 l=0.15
X1 a_543_7# a_193_7# a_448_7# VPB sky130_fd_pr__pfet_01v8_hvt ad=0.0724 pd=0.765 as=0.0651 ps=0.73 w=0.42 l=0.15
X2 VPWR a_1283_n19# a_1270_373# VPB sky130_fd_pr__pfet_01v8_hvt ad=0.0819 pd=0.81 as=0.0567 ps=0.69 w=0.42 l=0.15
X3 VPWR a_1108_7# a_1283_n19# VPB sky130_fd_pr__pfet_01v8_hvt ad=0.113 pd=1.38 as=0.0567 ps=0.69 w=0.42 l=0.15
X4 a_1108_7# a_193_7# a_761_249# VNB sky130_fd_pr__nfet_01v8 ad=0.0711 pd=0.755 as=0.0999 ps=0.985 w=0.36 l=0.15
X5 a_1270_373# a_193_7# a_1108_7# VPB sky130_fd_pr__pfet_01v8_hvt ad=0.0567 pd=0.69 as=0.0588 ps=0.7 w=0.42 l=0.15
X6 a_1283_n19# RESET_B VPWR VPB sky130_fd_pr__pfet_01v8_hvt ad=0.0567 pd=0.69 as=0.0819 ps=0.81 w=0.42 l=0.15
X7 VGND a_1283_n19# Q VNB sky130_fd_pr__nfet_01v8 ad=0.0878 pd=0.92 as=0.0878 ps=0.92 w=0.65 l=0.15
X8 VPWR a_761_249# a_651_373# VPB sky130_fd_pr__pfet_01v8_hvt ad=0.0703 pd=0.755 as=0.116 ps=0.97 w=0.42 l=0.15
X9 Q a_1283_n19# VGND VNB sky130_fd_pr__nfet_01v8 ad=0.0878 pd=0.92 as=0.0878 ps=0.92 w=0.65 l=0.15
X10 a_543_7# a_27_7# a_448_7# VNB sky130_fd_pr__nfet_01v8 ad=0.0594 pd=0.69 as=0.066 ps=0.745 w=0.36 l=0.15
X11 VGND a_1283_n19# Q VNB sky130_fd_pr__nfet_01v8 ad=0.182 pd=1.86 as=0.0878 ps=0.92 w=0.65 l=0.15
X12 VPWR a_1283_n19# Q VPB sky130_fd_pr__pfet_01v8_hvt ad=0.305 pd=2.61 as=0.135 ps=1.27 w=1 l=0.15
X13 VPWR CLK a_27_7# VPB sky130_fd_pr__pfet_01v8_hvt ad=0.0864 pd=0.91 as=0.166 ps=1.8 w=0.64 l=0.15
X14 a_193_7# a_27_7# VGND VNB sky130_fd_pr__nfet_01v8 ad=0.109 pd=1.36 as=0.0567 ps=0.69 w=0.42 l=0.15
X15 a_651_373# RESET_B VPWR VPB sky130_fd_pr__pfet_01v8_hvt ad=0.109 pd=1.36 as=0.0703 ps=0.755 w=0.42 l=0.15
X16 a_761_249# a_543_7# VPWR VPB sky130_fd_pr__pfet_01v8_hvt ad=0.129 pd=1.18 as=0.218 ps=2.2 w=0.84 l=0.15
X17 VGND RESET_B a_805_7# VNB sky130_fd_pr__nfet_01v8 ad=0.135 pd=1.15 as=0.0441 ps=0.63 w=0.42 l=0.15
X18 Q a_1283_n19# VPWR VPB sky130_fd_pr__pfet_01v8_hvt ad=0.135 pd=1.27 as=0.135 ps=1.27 w=1 l=0.15
X19 a_651_373# a_27_7# a_543_7# VPB sky130_fd_pr__pfet_01v8_hvt ad=0.116 pd=0.97 as=0.0724 ps=0.765 w=0.42 l=0.15
X20 VPWR a_1283_n19# Q VPB sky130_fd_pr__pfet_01v8_hvt ad=0.135 pd=1.27 as=0.135 ps=1.27 w=1 l=0.15
X21 a_1217_7# a_27_7# a_1108_7# VNB sky130_fd_pr__nfet_01v8 ad=0.0669 pd=0.75 as=0.0711 ps=0.755 w=0.36 l=0.15
X22 a_448_7# D VGND VNB sky130_fd_pr__nfet_01v8 ad=0.066 pd=0.745 as=0.221 ps=1.89 w=0.42 l=0.15
X23 a_639_7# a_193_7# a_543_7# VNB sky130_fd_pr__nfet_01v8 ad=0.14 pd=1.1 as=0.0594 ps=0.69 w=0.36 l=0.15
X24 a_448_7# D VPWR VPB sky130_fd_pr__pfet_01v8_hvt ad=0.0651 pd=0.73 as=0.109 ps=1.36 w=0.42 l=0.15
X25 a_1283_n19# a_1108_7# a_1462_7# VNB sky130_fd_pr__nfet_01v8 ad=0.109 pd=1.36 as=0.064 ps=0.725 w=0.42 l=0.15
X26 Q a_1283_n19# VGND VNB sky130_fd_pr__nfet_01v8 ad=0.0878 pd=0.92 as=0.169 ps=1.82 w=0.65 l=0.15
X27 VGND CLK a_27_7# VNB sky130_fd_pr__nfet_01v8 ad=0.0567 pd=0.69 as=0.109 ps=1.36 w=0.42 l=0.15
X28 a_805_7# a_761_249# a_639_7# VNB sky130_fd_pr__nfet_01v8 ad=0.0441 pd=0.63 as=0.14 ps=1.1 w=0.42 l=0.15
X29 a_1462_7# RESET_B VGND VNB sky130_fd_pr__nfet_01v8 ad=0.064 pd=0.725 as=0.125 ps=1.01 w=0.42 l=0.15
X30 Q a_1283_n19# VPWR VPB sky130_fd_pr__pfet_01v8_hvt ad=0.135 pd=1.27 as=0.26 ps=2.52 w=1 l=0.15
X31 a_193_7# a_27_7# VPWR VPB sky130_fd_pr__pfet_01v8_hvt ad=0.166 pd=1.8 as=0.0864 ps=0.91 w=0.64 l=0.15
X32 a_1108_7# a_27_7# a_761_249# VPB sky130_fd_pr__pfet_01v8_hvt ad=0.0588 pd=0.7 as=0.129 ps=1.18 w=0.42 l=0.15
X33 a_761_249# a_543_7# VGND VNB sky130_fd_pr__nfet_01v8 ad=0.0999 pd=0.985 as=0.135 ps=1.15 w=0.64 l=0.15
.ends

.subckt sky130_fd_sc_hd__buf_1 VGND VPWR VPB VNB X A
X0 X a_27_7# VGND VNB sky130_fd_pr__nfet_01v8 ad=0.135 pd=1.56 as=0.0754 ps=0.81 w=0.52 l=0.15
X1 VPWR A a_27_7# VPB sky130_fd_pr__pfet_01v8_hvt ad=0.115 pd=1.08 as=0.205 ps=2.1 w=0.79 l=0.15
X2 VGND A a_27_7# VNB sky130_fd_pr__nfet_01v8 ad=0.0754 pd=0.81 as=0.135 ps=1.56 w=0.52 l=0.15
X3 X a_27_7# VPWR VPB sky130_fd_pr__pfet_01v8_hvt ad=0.205 pd=2.1 as=0.115 ps=1.08 w=0.79 l=0.15
.ends

.subckt sky130_fd_sc_hd__a31o_1 VGND VPWR VPB VNB X A3 A2 A1 B1
X0 VPWR A2 a_209_257# VPB sky130_fd_pr__pfet_01v8_hvt ad=0.165 pd=1.33 as=0.16 ps=1.32 w=1 l=0.15
X1 a_80_n19# B1 a_209_257# VPB sky130_fd_pr__pfet_01v8_hvt ad=0.32 pd=2.64 as=0.165 ps=1.33 w=1 l=0.15
X2 a_209_257# A1 VPWR VPB sky130_fd_pr__pfet_01v8_hvt ad=0.165 pd=1.33 as=0.165 ps=1.33 w=1 l=0.15
X3 VPWR a_80_n19# X VPB sky130_fd_pr__pfet_01v8_hvt ad=0.172 pd=1.35 as=0.265 ps=2.53 w=1 l=0.15
X4 VGND B1 a_80_n19# VNB sky130_fd_pr__nfet_01v8 ad=0.208 pd=1.94 as=0.107 ps=0.98 w=0.65 l=0.15
X5 a_209_257# A3 VPWR VPB sky130_fd_pr__pfet_01v8_hvt ad=0.16 pd=1.32 as=0.172 ps=1.35 w=1 l=0.15
X6 VGND a_80_n19# X VNB sky130_fd_pr__nfet_01v8 ad=0.112 pd=0.995 as=0.172 ps=1.83 w=0.65 l=0.15
X7 a_209_7# A3 VGND VNB sky130_fd_pr__nfet_01v8 ad=0.104 pd=0.97 as=0.112 ps=0.995 w=0.65 l=0.15
X8 a_303_7# A2 a_209_7# VNB sky130_fd_pr__nfet_01v8 ad=0.107 pd=0.98 as=0.104 ps=0.97 w=0.65 l=0.15
X9 a_80_n19# A1 a_303_7# VNB sky130_fd_pr__nfet_01v8 ad=0.107 pd=0.98 as=0.107 ps=0.98 w=0.65 l=0.15
.ends

.subckt sky130_fd_sc_hd__dfrtp_2 VGND VPWR VPB VNB CLK D RESET_B Q
X0 VGND a_1283_n19# a_1217_7# VNB sky130_fd_pr__nfet_01v8 ad=0.125 pd=1.01 as=0.0669 ps=0.75 w=0.42 l=0.15
X1 a_543_7# a_193_7# a_448_7# VPB sky130_fd_pr__pfet_01v8_hvt ad=0.0724 pd=0.765 as=0.0651 ps=0.73 w=0.42 l=0.15
X2 VPWR a_1283_n19# a_1270_373# VPB sky130_fd_pr__pfet_01v8_hvt ad=0.0819 pd=0.81 as=0.0567 ps=0.69 w=0.42 l=0.15
X3 VPWR a_1108_7# a_1283_n19# VPB sky130_fd_pr__pfet_01v8_hvt ad=0.113 pd=1.38 as=0.0567 ps=0.69 w=0.42 l=0.15
X4 a_1108_7# a_193_7# a_761_249# VNB sky130_fd_pr__nfet_01v8 ad=0.0711 pd=0.755 as=0.0999 ps=0.985 w=0.36 l=0.15
X5 a_1270_373# a_193_7# a_1108_7# VPB sky130_fd_pr__pfet_01v8_hvt ad=0.0567 pd=0.69 as=0.0588 ps=0.7 w=0.42 l=0.15
X6 a_1283_n19# RESET_B VPWR VPB sky130_fd_pr__pfet_01v8_hvt ad=0.0567 pd=0.69 as=0.0819 ps=0.81 w=0.42 l=0.15
X7 VPWR a_761_249# a_651_373# VPB sky130_fd_pr__pfet_01v8_hvt ad=0.0703 pd=0.755 as=0.116 ps=0.97 w=0.42 l=0.15
X8 a_543_7# a_27_7# a_448_7# VNB sky130_fd_pr__nfet_01v8 ad=0.0594 pd=0.69 as=0.066 ps=0.745 w=0.36 l=0.15
X9 VPWR a_1283_n19# Q VPB sky130_fd_pr__pfet_01v8_hvt ad=0.26 pd=2.52 as=0.135 ps=1.27 w=1 l=0.15
X10 Q a_1283_n19# VPWR VPB sky130_fd_pr__pfet_01v8_hvt ad=0.135 pd=1.27 as=0.301 ps=2.66 w=1 l=0.15
X11 VPWR CLK a_27_7# VPB sky130_fd_pr__pfet_01v8_hvt ad=0.0864 pd=0.91 as=0.166 ps=1.8 w=0.64 l=0.15
X12 a_193_7# a_27_7# VGND VNB sky130_fd_pr__nfet_01v8 ad=0.109 pd=1.36 as=0.0567 ps=0.69 w=0.42 l=0.15
X13 a_651_373# RESET_B VPWR VPB sky130_fd_pr__pfet_01v8_hvt ad=0.109 pd=1.36 as=0.0703 ps=0.755 w=0.42 l=0.15
X14 a_761_249# a_543_7# VPWR VPB sky130_fd_pr__pfet_01v8_hvt ad=0.129 pd=1.18 as=0.218 ps=2.2 w=0.84 l=0.15
X15 VGND RESET_B a_805_7# VNB sky130_fd_pr__nfet_01v8 ad=0.135 pd=1.15 as=0.0441 ps=0.63 w=0.42 l=0.15
X16 a_651_373# a_27_7# a_543_7# VPB sky130_fd_pr__pfet_01v8_hvt ad=0.116 pd=0.97 as=0.0724 ps=0.765 w=0.42 l=0.15
X17 a_1217_7# a_27_7# a_1108_7# VNB sky130_fd_pr__nfet_01v8 ad=0.0669 pd=0.75 as=0.0711 ps=0.755 w=0.36 l=0.15
X18 a_448_7# D VGND VNB sky130_fd_pr__nfet_01v8 ad=0.066 pd=0.745 as=0.221 ps=1.89 w=0.42 l=0.15
X19 a_639_7# a_193_7# a_543_7# VNB sky130_fd_pr__nfet_01v8 ad=0.14 pd=1.1 as=0.0594 ps=0.69 w=0.36 l=0.15
X20 Q a_1283_n19# VGND VNB sky130_fd_pr__nfet_01v8 ad=0.0878 pd=0.92 as=0.209 ps=2.02 w=0.65 l=0.15
X21 VGND a_1283_n19# Q VNB sky130_fd_pr__nfet_01v8 ad=0.169 pd=1.82 as=0.0878 ps=0.92 w=0.65 l=0.15
X22 a_448_7# D VPWR VPB sky130_fd_pr__pfet_01v8_hvt ad=0.0651 pd=0.73 as=0.109 ps=1.36 w=0.42 l=0.15
X23 a_1283_n19# a_1108_7# a_1462_7# VNB sky130_fd_pr__nfet_01v8 ad=0.109 pd=1.36 as=0.064 ps=0.725 w=0.42 l=0.15
X24 VGND CLK a_27_7# VNB sky130_fd_pr__nfet_01v8 ad=0.0567 pd=0.69 as=0.109 ps=1.36 w=0.42 l=0.15
X25 a_805_7# a_761_249# a_639_7# VNB sky130_fd_pr__nfet_01v8 ad=0.0441 pd=0.63 as=0.14 ps=1.1 w=0.42 l=0.15
X26 a_1462_7# RESET_B VGND VNB sky130_fd_pr__nfet_01v8 ad=0.064 pd=0.725 as=0.125 ps=1.01 w=0.42 l=0.15
X27 a_193_7# a_27_7# VPWR VPB sky130_fd_pr__pfet_01v8_hvt ad=0.166 pd=1.8 as=0.0864 ps=0.91 w=0.64 l=0.15
X28 a_1108_7# a_27_7# a_761_249# VPB sky130_fd_pr__pfet_01v8_hvt ad=0.0588 pd=0.7 as=0.129 ps=1.18 w=0.42 l=0.15
X29 a_761_249# a_543_7# VGND VNB sky130_fd_pr__nfet_01v8 ad=0.0999 pd=0.985 as=0.135 ps=1.15 w=0.64 l=0.15
.ends

.subckt sky130_fd_sc_hd__or3_2 VGND VPWR VPB VNB B C A X
X0 VPWR A a_184_257# VPB sky130_fd_pr__pfet_01v8_hvt ad=0.148 pd=1.34 as=0.0693 ps=0.75 w=0.42 l=0.15
X1 a_184_257# B a_112_257# VPB sky130_fd_pr__pfet_01v8_hvt ad=0.0693 pd=0.75 as=0.0441 ps=0.63 w=0.42 l=0.15
X2 X a_30_13# VGND VNB sky130_fd_pr__nfet_01v8 ad=0.0878 pd=0.92 as=0.102 ps=0.99 w=0.65 l=0.15
X3 VPWR a_30_13# X VPB sky130_fd_pr__pfet_01v8_hvt ad=0.315 pd=2.63 as=0.135 ps=1.27 w=1 l=0.15
X4 VGND a_30_13# X VNB sky130_fd_pr__nfet_01v8 ad=0.185 pd=1.87 as=0.0878 ps=0.92 w=0.65 l=0.15
X5 X a_30_13# VPWR VPB sky130_fd_pr__pfet_01v8_hvt ad=0.135 pd=1.27 as=0.148 ps=1.34 w=1 l=0.15
X6 a_112_257# C a_30_13# VPB sky130_fd_pr__pfet_01v8_hvt ad=0.0441 pd=0.63 as=0.109 ps=1.36 w=0.42 l=0.15
X7 VGND A a_30_13# VNB sky130_fd_pr__nfet_01v8 ad=0.102 pd=0.99 as=0.0567 ps=0.69 w=0.42 l=0.15
X8 a_30_13# B VGND VNB sky130_fd_pr__nfet_01v8 ad=0.0567 pd=0.69 as=0.0567 ps=0.69 w=0.42 l=0.15
X9 VGND C a_30_13# VNB sky130_fd_pr__nfet_01v8 ad=0.0567 pd=0.69 as=0.109 ps=1.36 w=0.42 l=0.15
.ends

.subckt sky130_fd_sc_hd__o21a_1 VGND VPWR VPB VNB A1 A2 B1 X
X0 a_297_7# A1 VGND VNB sky130_fd_pr__nfet_01v8 ad=0.169 pd=1.82 as=0.0878 ps=0.92 w=0.65 l=0.15
X1 a_79_n19# B1 VPWR VPB sky130_fd_pr__pfet_01v8_hvt ad=0.195 pd=1.39 as=0.327 ps=1.65 w=1 l=0.15
X2 a_382_257# A2 a_79_n19# VPB sky130_fd_pr__pfet_01v8_hvt ad=0.153 pd=1.3 as=0.195 ps=1.39 w=1 l=0.15
X3 VPWR A1 a_382_257# VPB sky130_fd_pr__pfet_01v8_hvt ad=0.26 pd=2.52 as=0.153 ps=1.3 w=1 l=0.15
X4 a_297_7# B1 a_79_n19# VNB sky130_fd_pr__nfet_01v8 ad=0.101 pd=0.96 as=0.169 ps=1.82 w=0.65 l=0.15
X5 VGND a_79_n19# X VNB sky130_fd_pr__nfet_01v8 ad=0.169 pd=1.82 as=0.169 ps=1.82 w=0.65 l=0.15
X6 VPWR a_79_n19# X VPB sky130_fd_pr__pfet_01v8_hvt ad=0.327 pd=1.65 as=0.28 ps=2.56 w=1 l=0.15
X7 VGND A2 a_297_7# VNB sky130_fd_pr__nfet_01v8 ad=0.0878 pd=0.92 as=0.101 ps=0.96 w=0.65 l=0.15
.ends

.subckt sky130_fd_sc_hd__decap_3 VPWR VGND VPB VNB
X0 VGND VPWR VGND VNB sky130_fd_pr__nfet_01v8 ad=0.286 pd=3.24 as=0.143 ps=1.62 w=0.55 l=0.59
X1 VPWR VGND VPWR VPB sky130_fd_pr__pfet_01v8_hvt ad=0.452 pd=4.52 as=0.226 ps=2.26 w=0.87 l=0.59
.ends

.subckt sky130_fd_sc_hd__nor2_1 VGND VPWR VPB VNB A B Y
X0 a_109_257# B Y VPB sky130_fd_pr__pfet_01v8_hvt ad=0.105 pd=1.21 as=0.26 ps=2.52 w=1 l=0.15
X1 VGND A Y VNB sky130_fd_pr__nfet_01v8 ad=0.169 pd=1.82 as=0.0878 ps=0.92 w=0.65 l=0.15
X2 VPWR A a_109_257# VPB sky130_fd_pr__pfet_01v8_hvt ad=0.26 pd=2.52 as=0.105 ps=1.21 w=1 l=0.15
X3 Y B VGND VNB sky130_fd_pr__nfet_01v8 ad=0.0878 pd=0.92 as=0.169 ps=1.82 w=0.65 l=0.15
.ends

.subckt sky130_fd_sc_hd__a2bb2oi_1 VGND VPWR VPB VNB Y A2_N A1_N B2 B1
X0 a_109_257# A1_N VPWR VPB sky130_fd_pr__pfet_01v8_hvt ad=0.105 pd=1.21 as=0.26 ps=2.52 w=1 l=0.15
X1 VGND A2_N a_109_7# VNB sky130_fd_pr__nfet_01v8 ad=0.283 pd=1.52 as=0.0878 ps=0.92 w=0.65 l=0.15
X2 Y a_109_7# VGND VNB sky130_fd_pr__nfet_01v8 ad=0.0878 pd=0.92 as=0.283 ps=1.52 w=0.65 l=0.15
X3 a_109_7# A2_N a_109_257# VPB sky130_fd_pr__pfet_01v8_hvt ad=0.26 pd=2.52 as=0.105 ps=1.21 w=1 l=0.15
X4 a_397_257# B1 VPWR VPB sky130_fd_pr__pfet_01v8_hvt ad=0.26 pd=2.52 as=0.135 ps=1.27 w=1 l=0.15
X5 a_481_7# B2 Y VNB sky130_fd_pr__nfet_01v8 ad=0.0878 pd=0.92 as=0.0878 ps=0.92 w=0.65 l=0.15
X6 VGND B1 a_481_7# VNB sky130_fd_pr__nfet_01v8 ad=0.169 pd=1.82 as=0.0878 ps=0.92 w=0.65 l=0.15
X7 VPWR B2 a_397_257# VPB sky130_fd_pr__pfet_01v8_hvt ad=0.135 pd=1.27 as=0.135 ps=1.27 w=1 l=0.15
X8 a_397_257# a_109_7# Y VPB sky130_fd_pr__pfet_01v8_hvt ad=0.135 pd=1.27 as=0.34 ps=2.68 w=1 l=0.15
X9 a_109_7# A1_N VGND VNB sky130_fd_pr__nfet_01v8 ad=0.0878 pd=0.92 as=0.169 ps=1.82 w=0.65 l=0.15
.ends

.subckt sky130_fd_sc_hd__clkbuf_1 VGND VPWR VPB VNB X A
X0 a_75_172# A VGND VNB sky130_fd_pr__nfet_01v8 ad=0.135 pd=1.56 as=0.0754 ps=0.81 w=0.52 l=0.15
X1 VPWR a_75_172# X VPB sky130_fd_pr__pfet_01v8_hvt ad=0.115 pd=1.08 as=0.205 ps=2.1 w=0.79 l=0.15
X2 VGND a_75_172# X VNB sky130_fd_pr__nfet_01v8 ad=0.0754 pd=0.81 as=0.135 ps=1.56 w=0.52 l=0.15
X3 a_75_172# A VPWR VPB sky130_fd_pr__pfet_01v8_hvt ad=0.205 pd=2.1 as=0.115 ps=1.08 w=0.79 l=0.15
.ends

.subckt sky130_fd_sc_hd__a22o_1 VPWR VGND VPB VNB B1 A1 A2 X B2
X0 VGND A2 a_373_7# VNB sky130_fd_pr__nfet_01v8 ad=0.101 pd=0.96 as=0.114 ps=1 w=0.65 l=0.15
X1 a_109_257# B2 a_27_257# VPB sky130_fd_pr__pfet_01v8_hvt ad=0.135 pd=1.27 as=0.26 ps=2.52 w=1 l=0.15
X2 VPWR A2 a_109_257# VPB sky130_fd_pr__pfet_01v8_hvt ad=0.155 pd=1.31 as=0.16 ps=1.32 w=1 l=0.15
X3 X a_27_257# VPWR VPB sky130_fd_pr__pfet_01v8_hvt ad=0.26 pd=2.52 as=0.155 ps=1.31 w=1 l=0.15
X4 X a_27_257# VGND VNB sky130_fd_pr__nfet_01v8 ad=0.169 pd=1.82 as=0.101 ps=0.96 w=0.65 l=0.15
X5 a_109_257# A1 VPWR VPB sky130_fd_pr__pfet_01v8_hvt ad=0.16 pd=1.32 as=0.253 ps=2.52 w=1 l=0.15
X6 a_27_257# B1 a_109_257# VPB sky130_fd_pr__pfet_01v8_hvt ad=0.253 pd=2.52 as=0.135 ps=1.27 w=1 l=0.15