* SPICE3 file created from sarlogic.ext - technology: sky130B

.subckt sky130_fd_sc_hd__decap_4 VGND VPWR VPB VNB
X0 VGND VPWR VGND VNB sky130_fd_pr__nfet_01v8 ad=0.143 pd=1.62 as=0.286 ps=3.24 w=0.55 l=1.05
X1 VPWR VGND VPWR VPB sky130_fd_pr__pfet_01v8_hvt ad=0.226 pd=2.26 as=0.452 ps=4.52 w=0.87 l=1.05
C0 VGND VPWR 0.546f
C1 VPB VPWR 0.0787f
C2 VPB VGND 0.116f
C3 VPWR VNB 0.619f
C4 VGND VNB 0.554f
C5 VPB VNB 0.428f
.ends

.subckt sky130_fd_sc_hd__decap_8 VPWR VGND VPB VNB
X0 VGND VPWR VGND VNB sky130_fd_pr__nfet_01v8 ad=0.143 pd=1.62 as=0.286 ps=3.24 w=0.55 l=2.89
X1 VPWR VGND VPWR VPB sky130_fd_pr__pfet_01v8_hvt ad=0.226 pd=2.26 as=0.452 ps=4.52 w=0.87 l=2.89
C0 VPB VGND 0.22f
C1 VPWR VGND 1.27f
C2 VPWR VPB 0.105f
C3 VPWR VNB 1.14f
C4 VGND VNB 0.992f
C5 VPB VNB 0.782f
.ends

.subckt sky130_fd_sc_hd__inv_2 VPWR VGND VPB VNB Y A
X0 VPWR A Y VPB sky130_fd_pr__pfet_01v8_hvt ad=0.26 pd=2.52 as=0.135 ps=1.27 w=1 l=0.15
X1 Y A VGND VNB sky130_fd_pr__nfet_01v8 ad=0.0878 pd=0.92 as=0.169 ps=1.82 w=0.65 l=0.15
X2 Y A VPWR VPB sky130_fd_pr__pfet_01v8_hvt ad=0.135 pd=1.27 as=0.26 ps=2.52 w=1 l=0.15
X3 VGND A Y VNB sky130_fd_pr__nfet_01v8 ad=0.169 pd=1.82 as=0.0878 ps=0.92 w=0.65 l=0.15
C0 Y VGND 0.155f
C1 VGND A 0.0638f
C2 VGND VPB 0.00649f
C3 VPWR VGND 0.0423f
C4 Y A 0.0894f
C5 Y VPB 0.0061f
C6 VPWR Y 0.209f
C7 VPB A 0.0742f
C8 VPWR A 0.0631f
C9 VPWR VPB 0.0521f
C10 VGND VNB 0.266f
C11 Y VNB 0.0332f
C12 VPWR VNB 0.246f
C13 A VNB 0.263f
C14 VPB VNB 0.339f
.ends

.subckt sky130_fd_sc_hd__dfstp_1 VPWR VGND VPB VNB Q SET_B D CLK a_652_n19# a_1602_7#
+ a_562_373# a_1032_373# a_1296_7# a_796_7# a_586_7# a_1056_7# a_381_7# a_193_7# a_1140_373#
+ a_27_7# a_956_373# a_476_7# a_1224_7# a_1182_221#
X0 VPWR a_1032_373# a_1602_7# VPB sky130_fd_pr__pfet_01v8_hvt ad=0.149 pd=1.33 as=0.166 ps=1.8 w=0.64 l=0.15
X1 a_1032_373# a_193_7# a_1056_7# VNB sky130_fd_pr__nfet_01v8 ad=0.0693 pd=0.75 as=0.0441 ps=0.63 w=0.42 l=0.15
X2 VPWR SET_B a_1032_373# VPB sky130_fd_pr__pfet_01v8_hvt ad=0.123 pd=1.17 as=0.109 ps=1.36 w=0.42 l=0.15
X3 a_476_7# a_27_7# a_381_7# VNB sky130_fd_pr__nfet_01v8 ad=0.072 pd=0.76 as=0.0935 ps=0.965 w=0.36 l=0.15
X4 a_1296_7# a_1182_221# a_1224_7# VNB sky130_fd_pr__nfet_01v8 ad=0.0483 pd=0.65 as=0.0441 ps=0.63 w=0.42 l=0.15
X5 a_1032_373# a_27_7# a_956_373# VPB sky130_fd_pr__pfet_01v8_hvt ad=0.0819 pd=0.81 as=0.0483 ps=0.65 w=0.42 l=0.15
X6 a_1182_221# a_1032_373# VPWR VPB sky130_fd_pr__pfet_01v8_hvt ad=0.218 pd=2.2 as=0.123 ps=1.17 w=0.84 l=0.15
X7 Q a_1602_7# VGND VNB sky130_fd_pr__nfet_01v8 ad=0.169 pd=1.82 as=0.097 ps=0.975 w=0.65 l=0.15
X8 a_652_n19# a_476_7# a_796_7# VNB sky130_fd_pr__nfet_01v8 ad=0.109 pd=1.36 as=0.0441 ps=0.63 w=0.42 l=0.15
X9 a_1140_373# a_193_7# a_1032_373# VPB sky130_fd_pr__pfet_01v8_hvt ad=0.0441 pd=0.63 as=0.0819 ps=0.81 w=0.42 l=0.15
X10 a_586_7# a_193_7# a_476_7# VNB sky130_fd_pr__nfet_01v8 ad=0.0671 pd=0.75 as=0.072 ps=0.76 w=0.36 l=0.15
X11 VPWR CLK a_27_7# VPB sky130_fd_pr__pfet_01v8_hvt ad=0.0864 pd=0.91 as=0.166 ps=1.8 w=0.64 l=0.15
X12 a_193_7# a_27_7# VGND VNB sky130_fd_pr__nfet_01v8 ad=0.109 pd=1.36 as=0.0567 ps=0.69 w=0.42 l=0.15
X13 a_381_7# D VGND VNB sky130_fd_pr__nfet_01v8 ad=0.0935 pd=0.965 as=0.166 ps=1.8 w=0.64 l=0.15
X14 a_1224_7# a_27_7# a_1032_373# VNB sky130_fd_pr__nfet_01v8 ad=0.0441 pd=0.63 as=0.0693 ps=0.75 w=0.42 l=0.15
X15 a_1182_221# a_1032_373# VGND VNB sky130_fd_pr__nfet_01v8 ad=0.14 pd=1.6 as=0.114 ps=1.01 w=0.54 l=0.15
X16 VGND a_1032_373# a_1602_7# VNB sky130_fd_pr__nfet_01v8 ad=0.097 pd=0.975 as=0.109 ps=1.36 w=0.42 l=0.15
X17 a_956_373# a_476_7# VPWR VPB sky130_fd_pr__pfet_01v8_hvt ad=0.0483 pd=0.65 as=0.0567 ps=0.69 w=0.42 l=0.15
X18 Q a_1602_7# VPWR VPB sky130_fd_pr__pfet_01v8_hvt ad=0.26 pd=2.52 as=0.149 ps=1.33 w=1 l=0.15
X19 a_796_7# SET_B VGND VNB sky130_fd_pr__nfet_01v8 ad=0.0441 pd=0.63 as=0.0882 ps=0.84 w=0.42 l=0.15
X20 VPWR a_476_7# a_652_n19# VPB sky130_fd_pr__pfet_01v8_hvt ad=0.0567 pd=0.69 as=0.0567 ps=0.69 w=0.42 l=0.15
X21 VGND SET_B a_1296_7# VNB sky130_fd_pr__nfet_01v8 ad=0.114 pd=1.01 as=0.0483 ps=0.65 w=0.42 l=0.15
X22 VGND a_652_n19# a_586_7# VNB sky130_fd_pr__nfet_01v8 ad=0.0882 pd=0.84 as=0.0671 ps=0.75 w=0.42 l=0.15
X23 a_381_7# D VPWR VPB sky130_fd_pr__pfet_01v8_hvt ad=0.125 pd=1.17 as=0.218 ps=2.2 w=0.84 l=0.15
X24 a_652_n19# SET_B VPWR VPB sky130_fd_pr__pfet_01v8_hvt ad=0.0567 pd=0.69 as=0.0798 ps=0.8 w=0.42 l=0.15
X25 a_562_373# a_27_7# a_476_7# VPB sky130_fd_pr__pfet_01v8_hvt ad=0.0945 pd=0.87 as=0.0567 ps=0.69 w=0.42 l=0.15
X26 VGND CLK a_27_7# VNB sky130_fd_pr__nfet_01v8 ad=0.0567 pd=0.69 as=0.109 ps=1.36 w=0.42 l=0.15
X27 VPWR a_1182_221# a_1140_373# VPB sky130_fd_pr__pfet_01v8_hvt ad=0.109 pd=1.36 as=0.0441 ps=0.63 w=0.42 l=0.15
X28 a_476_7# a_193_7# a_381_7# VPB sky130_fd_pr__pfet_01v8_hvt ad=0.0567 pd=0.69 as=0.125 ps=1.17 w=0.42 l=0.15
X29 a_1056_7# a_476_7# VGND VNB sky130_fd_pr__nfet_01v8 ad=0.0441 pd=0.63 as=0.109 ps=1.36 w=0.42 l=0.15
X30 a_193_7# a_27_7# VPWR VPB sky130_fd_pr__pfet_01v8_hvt ad=0.166 pd=1.8 as=0.0864 ps=0.91 w=0.64 l=0.15
X31 VPWR a_652_n19# a_562_373# VPB sky130_fd_pr__pfet_01v8_hvt ad=0.0798 pd=0.8 as=0.0945 ps=0.87 w=0.42 l=0.15
C0 a_1032_373# a_1602_7# 0.111f
C1 Q a_193_7# 6.4e-20
C2 CLK VGND 0.0194f
C3 VPB Q 0.0174f
C4 D VPWR 0.0158f
C5 a_956_373# a_652_n19# 3.11e-19
C6 a_1224_7# a_652_n19# 1.57e-19
C7 a_1032_373# a_1140_373# 0.00523f
C8 a_1032_373# a_1296_7# 0.00384f
C9 a_1602_7# a_193_7# 4.3e-19
C10 SET_B a_27_7# 0.0407f
C11 a_1602_7# VPB 0.0453f
C12 D VGND 0.014f
C13 a_1182_221# a_1602_7# 0.144f
C14 a_476_7# a_381_7# 0.0356f
C15 SET_B VPWR 0.0807f
C16 a_652_n19# a_381_7# 7.79e-20
C17 a_193_7# a_381_7# 0.157f
C18 VPB a_381_7# 0.0101f
C19 VPWR a_27_7# 0.438f
C20 a_1182_221# a_1296_7# 1.84e-19
C21 a_796_7# SET_B 0.00149f
C22 a_586_7# a_476_7# 0.00807f
C23 SET_B VGND 0.338f
C24 a_586_7# a_193_7# 0.00206f
C25 VGND a_27_7# 0.164f
C26 a_1056_7# SET_B 0.00152f
C27 a_1032_373# a_476_7# 0.00329f
C28 a_1032_373# a_652_n19# 0.00971f
C29 SET_B Q 4.58e-19
C30 VPWR VGND 0.0687f
C31 a_1032_373# a_193_7# 0.0573f
C32 a_562_373# a_27_7# 0.0018f
C33 a_1056_7# a_27_7# 0.00248f
C34 a_1032_373# VPB 0.177f
C35 D a_381_7# 0.14f
C36 a_1182_221# a_1032_373# 0.344f
C37 Q a_27_7# 1.08e-19
C38 a_562_373# VPWR 0.0041f
C39 a_1224_7# SET_B 8.75e-19
C40 a_796_7# VGND 0.00583f
C41 a_652_n19# a_476_7# 0.26f
C42 a_193_7# a_476_7# 0.215f
C43 a_1602_7# SET_B 0.00213f
C44 VPB a_476_7# 0.146f
C45 VPWR Q 0.0704f
C46 a_193_7# a_652_n19# 0.0849f
C47 VPB a_652_n19# 0.0992f
C48 a_956_373# a_27_7# 0.00294f
C49 a_1224_7# a_27_7# 1.63e-19
C50 VPB a_193_7# 0.179f
C51 a_1602_7# a_27_7# 2.39e-19
C52 a_1182_221# a_193_7# 0.0728f
C53 a_1140_373# SET_B 6.31e-19
C54 a_956_373# VPWR 0.00457f
C55 a_1182_221# VPB 0.112f
C56 a_1296_7# SET_B 0.00167f
C57 a_1056_7# VGND 0.00386f
C58 a_1602_7# VPWR 0.135f
C59 VGND Q 0.0595f
C60 a_27_7# a_381_7# 0.0729f
C61 CLK a_193_7# 0.00156f
C62 VPB CLK 0.0702f
C63 a_1140_373# VPWR 0.00334f
C64 a_956_373# VGND 3.4e-19
C65 VPWR a_381_7# 0.0942f
C66 a_1224_7# VGND 0.00169f
C67 a_1602_7# VGND 0.0942f
C68 D a_476_7# 1.36e-19
C69 D a_193_7# 0.0606f
C70 VPB D 0.0485f
C71 a_1032_373# SET_B 0.215f
C72 VGND a_381_7# 0.0787f
C73 a_1296_7# VGND 0.00523f
C74 a_1602_7# Q 0.0715f
C75 a_1032_373# a_27_7# 0.183f
C76 a_562_373# a_381_7# 8.75e-19
C77 SET_B a_476_7# 0.203f
C78 SET_B a_652_n19# 0.157f
C79 a_1032_373# VPWR 0.257f
C80 SET_B a_193_7# 0.202f
C81 a_586_7# VGND 0.00172f
C82 VPB SET_B 0.143f
C83 a_27_7# a_476_7# 0.223f
C84 a_1182_221# SET_B 0.12f
C85 a_27_7# a_652_n19# 0.19f
C86 a_27_7# a_193_7# 0.797f
C87 VPB a_27_7# 0.226f
C88 VPWR a_476_7# 0.12f
C89 VPWR a_652_n19# 0.144f
C90 a_1182_221# a_27_7# 0.0608f
C91 a_1032_373# VGND 0.157f
C92 VPWR a_193_7# 0.101f
C93 VPB VPWR 0.218f
C94 a_796_7# a_476_7# 0.00184f
C95 a_1182_221# VPWR 0.123f
C96 a_796_7# a_652_n19# 0.00196f
C97 a_1032_373# a_1056_7# 0.0016f
C98 CLK a_27_7# 0.214f
C99 VGND a_476_7# 0.178f
C100 VGND a_652_n19# 0.0761f
C101 a_1032_373# Q 0.00365f
C102 VGND a_193_7# 0.219f
C103 VPB VGND 0.0173f
C104 CLK VPWR 0.0194f
C105 a_562_373# a_476_7# 0.00972f
C106 a_1182_221# VGND 0.0628f
C107 a_562_373# a_652_n19# 9.35e-20
C108 a_1056_7# a_652_n19# 3.94e-19
C109 a_1032_373# a_956_373# 0.00212f
C110 a_562_373# a_193_7# 4.45e-20
C111 a_1032_373# a_1224_7# 0.00536f
C112 D a_27_7# 0.103f
C113 a_586_7# a_381_7# 3.7e-19
C114 Q VNB 0.0834f
C115 VGND VNB 1.08f
C116 VPWR VNB 0.875f
C117 SET_B VNB 0.247f
C118 D VNB 0.107f
C119 CLK VNB 0.196f
C120 VPB VNB 1.93f
C121 a_381_7# VNB 0.0203f
C122 a_1602_7# VNB 0.126f
C123 a_1032_373# VNB 0.305f
C124 a_1182_221# VNB 0.128f
C125 a_476_7# VNB 0.286f
C126 a_652_n19# VNB 0.119f
C127 a_193_7# VNB 0.322f
C128 a_27_7# VNB 0.437f
.ends

.subckt sky130_fd_sc_hd__decap_6 VPWR VGND VPB VNB
X0 VGND VPWR VGND VNB sky130_fd_pr__nfet_01v8 ad=0.143 pd=1.62 as=0.286 ps=3.24 w=0.55 l=1.97
X1 VPWR VGND VPWR VPB sky130_fd_pr__pfet_01v8_hvt ad=0.226 pd=2.26 as=0.452 ps=4.52 w=0.87 l=1.97
C0 VPB VPWR 0.0858f
C1 VGND VPWR 0.903f
C2 VPB VGND 0.161f
C3 VPWR VNB 0.867f
C4 VGND VNB 0.761f
C5 VPB VNB 0.605f
.ends

.subckt sky130_fd_sc_hd__a32o_1 VGND VPWR VPB VNB X A3 A2 A1 B1 B2 a_584_7# a_346_7#
+ a_256_7# a_250_257# a_93_n19#
X0 a_346_7# A2 a_256_7# VNB sky130_fd_pr__nfet_01v8 ad=0.146 pd=1.1 as=0.0975 ps=0.95 w=0.65 l=0.15
X1 a_250_257# A1 VPWR VPB sky130_fd_pr__pfet_01v8_hvt ad=0.185 pd=1.37 as=0.225 ps=1.45 w=1 l=0.15
X2 a_93_n19# A1 a_346_7# VNB sky130_fd_pr__nfet_01v8 ad=0.143 pd=1.09 as=0.146 ps=1.1 w=0.65 l=0.15
X3 a_93_n19# B1 a_250_257# VPB sky130_fd_pr__pfet_01v8_hvt ad=0.14 pd=1.28 as=0.185 ps=1.37 w=1 l=0.15
X4 VGND B2 a_584_7# VNB sky130_fd_pr__nfet_01v8 ad=0.172 pd=1.83 as=0.0683 ps=0.86 w=0.65 l=0.15
X5 VPWR a_93_n19# X VPB sky130_fd_pr__pfet_01v8_hvt ad=0.243 pd=1.49 as=0.33 ps=2.66 w=1 l=0.15
X6 VGND a_93_n19# X VNB sky130_fd_pr__nfet_01v8 ad=0.167 pd=1.16 as=0.214 ps=1.96 w=0.65 l=0.15
X7 a_250_257# B2 a_93_n19# VPB sky130_fd_pr__pfet_01v8_hvt ad=0.265 pd=2.53 as=0.14 ps=1.28 w=1 l=0.15
X8 a_256_7# A3 VGND VNB sky130_fd_pr__nfet_01v8 ad=0.0975 pd=0.95 as=0.167 ps=1.16 w=0.65 l=0.15
X9 a_250_257# A3 VPWR VPB sky130_fd_pr__pfet_01v8_hvt ad=0.165 pd=1.33 as=0.243 ps=1.49 w=1 l=0.15
X10 a_584_7# B1 a_93_n19# VNB sky130_fd_pr__nfet_01v8 ad=0.0683 pd=0.86 as=0.143 ps=1.09 w=0.65 l=0.15
X11 VPWR A2 a_250_257# VPB sky130_fd_pr__pfet_01v8_hvt ad=0.225 pd=1.45 as=0.165 ps=1.33 w=1 l=0.15
C0 A2 A3 0.0788f
C1 VGND a_256_7# 0.00394f
C2 A1 B1 0.0965f
C3 A3 a_250_257# 0.00602f
C4 a_346_7# VPWR 0.00109f
C5 A1 B2 3.14e-19
C6 VGND a_346_7# 0.00514f
C7 A3 a_256_7# 4.42e-19
C8 a_93_n19# B1 0.0774f
C9 a_584_7# VPWR 9.47e-19
C10 A2 B1 1.44e-20
C11 X VPWR 0.0849f
C12 VGND VPWR 0.076f
C13 B2 a_93_n19# 0.0147f
C14 A2 B2 1.46e-19
C15 VPB VPWR 0.0756f
C16 VGND a_584_7# 0.00683f
C17 VGND X 0.06f
C18 a_250_257# B1 0.0125f
C19 VPB X 0.0108f
C20 B2 a_250_257# 0.0344f
C21 VPB VGND 0.00788f
C22 A3 VPWR 0.0158f
C23 A1 a_93_n19# 0.0641f
C24 a_256_7# B1 2.07e-20
C25 A2 A1 0.0971f
C26 A3 X 2.45e-19
C27 A3 VGND 0.00974f
C28 A1 a_250_257# 0.0129f
C29 A3 VPB 0.0291f
C30 A2 a_93_n19# 0.0747f
C31 a_346_7# B1 5.39e-20
C32 VPWR B1 0.01f
C33 a_93_n19# a_250_257# 0.188f
C34 A2 a_250_257# 0.0129f
C35 a_584_7# B1 0.00143f
C36 B2 VPWR 0.0108f
C37 X B1 3.83e-20
C38 VGND B1 0.0344f
C39 VPB B1 0.0276f
C40 a_93_n19# a_256_7# 0.0114f
C41 B2 VGND 0.0469f
C42 A1 a_346_7# 0.00465f
C43 A2 a_256_7# 0.00256f
C44 B2 VPB 0.0355f
C45 A1 VPWR 0.016f
C46 A3 B1 7.88e-22
C47 A1 X 6.03e-20
C48 a_93_n19# a_346_7# 0.0119f
C49 B2 A3 9.12e-20
C50 A1 VGND 0.0133f
C51 A2 a_346_7# 0.00252f
C52 A1 VPB 0.0296f
C53 a_93_n19# VPWR 0.0907f
C54 A2 VPWR 0.0133f
C55 a_93_n19# a_584_7# 0.00278f
C56 a_93_n19# X 0.0841f
C57 VGND a_93_n19# 0.251f
C58 A2 X 1.19e-19
C59 A2 VGND 0.0114f
C60 a_250_257# VPWR 0.313f
C61 VPB a_93_n19# 0.0485f
C62 A2 VPB 0.0287f
C63 a_250_257# a_584_7# 2.43e-19
C64 a_250_257# X 5.42e-19
C65 B2 B1 0.0823f
C66 VGND a_250_257# 0.0072f
C67 a_256_7# VPWR 9.47e-19
C68 A3 a_93_n19# 0.124f
C69 VPB a_250_257# 0.00616f
C70 VGND VNB 0.465f
C71 VPWR VNB 0.365f
C72 X VNB 0.0937f
C73 B2 VNB 0.14f
C74 B1 VNB 0.101f
C75 A1 VNB 0.0951f
C76 A2 VNB 0.0921f
C77 A3 VNB 0.0929f
C78 VPB VNB 0.782f
C79 a_250_257# VNB 0.0278f
C80 a_93_n19# VNB 0.151f
.ends

.subckt sky130_fd_sc_hd__dfrtp_1 VGND VPWR VPB VNB CLK D RESET_B Q a_639_7# a_805_7#
+ a_448_7# a_543_7# a_1283_n19# a_1462_7# a_1270_373# a_193_7# a_1217_7# a_761_249#
+ a_27_7# a_1108_7# a_651_373#
X0 VGND a_1283_n19# a_1217_7# VNB sky130_fd_pr__nfet_01v8 ad=0.125 pd=1.01 as=0.0669 ps=0.75 w=0.42 l=0.15
X1 a_543_7# a_193_7# a_448_7# VPB sky130_fd_pr__pfet_01v8_hvt ad=0.0724 pd=0.765 as=0.0651 ps=0.73 w=0.42 l=0.15
X2 VPWR a_1283_n19# a_1270_373# VPB sky130_fd_pr__pfet_01v8_hvt ad=0.0819 pd=0.81 as=0.0567 ps=0.69 w=0.42 l=0.15
X3 VPWR a_1108_7# a_1283_n19# VPB sky130_fd_pr__pfet_01v8_hvt ad=0.113 pd=1.38 as=0.0567 ps=0.69 w=0.42 l=0.15
X4 a_1108_7# a_193_7# a_761_249# VNB sky130_fd_pr__nfet_01v8 ad=0.0711 pd=0.755 as=0.0999 ps=0.985 w=0.36 l=0.15
X5 a_1270_373# a_193_7# a_1108_7# VPB sky130_fd_pr__pfet_01v8_hvt ad=0.0567 pd=0.69 as=0.0588 ps=0.7 w=0.42 l=0.15
X6 a_1283_n19# RESET_B VPWR VPB sky130_fd_pr__pfet_01v8_hvt ad=0.0567 pd=0.69 as=0.0819 ps=0.81 w=0.42 l=0.15
X7 VPWR a_761_249# a_651_373# VPB sky130_fd_pr__pfet_01v8_hvt ad=0.0703 pd=0.755 as=0.116 ps=0.97 w=0.42 l=0.15
X8 a_543_7# a_27_7# a_448_7# VNB sky130_fd_pr__nfet_01v8 ad=0.0594 pd=0.69 as=0.066 ps=0.745 w=0.36 l=0.15
X9 Q a_1283_n19# VPWR VPB sky130_fd_pr__pfet_01v8_hvt ad=0.26 pd=2.52 as=0.301 ps=2.66 w=1 l=0.15
X10 VPWR CLK a_27_7# VPB sky130_fd_pr__pfet_01v8_hvt ad=0.0864 pd=0.91 as=0.166 ps=1.8 w=0.64 l=0.15
X11 a_193_7# a_27_7# VGND VNB sky130_fd_pr__nfet_01v8 ad=0.109 pd=1.36 as=0.0567 ps=0.69 w=0.42 l=0.15
X12 a_651_373# RESET_B VPWR VPB sky130_fd_pr__pfet_01v8_hvt ad=0.109 pd=1.36 as=0.0703 ps=0.755 w=0.42 l=0.15
X13 a_761_249# a_543_7# VPWR VPB sky130_fd_pr__pfet_01v8_hvt ad=0.129 pd=1.18 as=0.218 ps=2.2 w=0.84 l=0.15
X14 VGND RESET_B a_805_7# VNB sky130_fd_pr__nfet_01v8 ad=0.135 pd=1.15 as=0.0441 ps=0.63 w=0.42 l=0.15
X15 a_651_373# a_27_7# a_543_7# VPB sky130_fd_pr__pfet_01v8_hvt ad=0.116 pd=0.97 as=0.0724 ps=0.765 w=0.42 l=0.15
X16 a_1217_7# a_27_7# a_1108_7# VNB sky130_fd_pr__nfet_01v8 ad=0.0669 pd=0.75 as=0.0711 ps=0.755 w=0.36 l=0.15
X17 a_448_7# D VGND VNB sky130_fd_pr__nfet_01v8 ad=0.066 pd=0.745 as=0.221 ps=1.89 w=0.42 l=0.15
X18 a_639_7# a_193_7# a_543_7# VNB sky130_fd_pr__nfet_01v8 ad=0.14 pd=1.1 as=0.0594 ps=0.69 w=0.36 l=0.15
X19 Q a_1283_n19# VGND VNB sky130_fd_pr__nfet_01v8 ad=0.169 pd=1.82 as=0.209 ps=2.02 w=0.65 l=0.15
X20 a_448_7# D VPWR VPB sky130_fd_pr__pfet_01v8_hvt ad=0.0651 pd=0.73 as=0.109 ps=1.36 w=0.42 l=0.15
X21 a_1283_n19# a_1108_7# a_1462_7# VNB sky130_fd_pr__nfet_01v8 ad=0.109 pd=1.36 as=0.064 ps=0.725 w=0.42 l=0.15
X22 VGND CLK a_27_7# VNB sky130_fd_pr__nfet_01v8 ad=0.0567 pd=0.69 as=0.109 ps=1.36 w=0.42 l=0.15
X23 a_805_7# a_761_249# a_639_7# VNB sky130_fd_pr__nfet_01v8 ad=0.0441 pd=0.63 as=0.14 ps=1.1 w=0.42 l=0.15
X24 a_1462_7# RESET_B VGND VNB sky130_fd_pr__nfet_01v8 ad=0.064 pd=0.725 as=0.125 ps=1.01 w=0.42 l=0.15
X25 a_193_7# a_27_7# VPWR VPB sky130_fd_pr__pfet_01v8_hvt ad=0.166 pd=1.8 as=0.0864 ps=0.91 w=0.64 l=0.15
X26 a_1108_7# a_27_7# a_761_249# VPB sky130_fd_pr__pfet_01v8_hvt ad=0.0588 pd=0.7 as=0.129 ps=1.18 w=0.42 l=0.15
X27 a_761_249# a_543_7# VGND VNB sky130_fd_pr__nfet_01v8 ad=0.0999 pd=0.985 as=0.135 ps=1.15 w=0.64 l=0.15
C0 a_543_7# RESET_B 0.153f
C1 a_193_7# Q 1.81e-19
C2 a_193_7# a_761_249# 0.186f
C3 a_639_7# a_761_249# 3.16e-19
C4 Q VPWR 0.0997f
C5 a_193_7# a_543_7# 0.23f
C6 VGND a_1108_7# 0.148f
C7 a_193_7# RESET_B 0.0269f
C8 a_543_7# a_639_7# 0.0138f
C9 VPWR a_761_249# 0.105f
C10 RESET_B a_639_7# 9.54e-19
C11 a_27_7# Q 2.63e-20
C12 VGND a_1217_7# 9.68e-19
C13 VGND a_1283_n19# 0.24f
C14 a_543_7# VPWR 0.1f
C15 VPB VGND 0.00999f
C16 VGND a_448_7# 0.0661f
C17 a_1217_7# a_1108_7# 0.00742f
C18 RESET_B VPWR 0.0652f
C19 a_27_7# a_761_249# 0.0701f
C20 a_1283_n19# a_1108_7# 0.234f
C21 VPB a_1108_7# 0.113f
C22 a_27_7# a_543_7# 0.115f
C23 a_27_7# RESET_B 0.296f
C24 VPB a_1283_n19# 0.137f
C25 a_193_7# a_639_7# 2.28e-19
C26 CLK VGND 0.0172f
C27 VPB a_448_7# 0.0141f
C28 VGND D 0.0516f
C29 a_193_7# VPWR 0.396f
C30 VPB a_651_373# 0.0135f
C31 a_1270_373# a_1108_7# 0.00645f
C32 VGND a_1462_7# 0.00221f
C33 VPB CLK 0.0693f
C34 VPB D 0.138f
C35 a_27_7# a_193_7# 0.906f
C36 a_448_7# D 0.156f
C37 a_27_7# a_639_7# 0.00188f
C38 a_1462_7# a_1283_n19# 0.0074f
C39 a_27_7# VPWR 0.152f
C40 VGND Q 0.0616f
C41 Q a_1108_7# 9.8e-19
C42 VGND a_761_249# 0.0734f
C43 VGND a_805_7# 0.00579f
C44 a_1108_7# a_761_249# 0.0512f
C45 Q a_1283_n19# 0.0598f
C46 a_543_7# VGND 0.123f
C47 VPB Q 0.011f
C48 VGND RESET_B 0.288f
C49 a_1217_7# a_761_249# 4.2e-19
C50 a_543_7# a_1108_7# 7.99e-20
C51 RESET_B a_1108_7# 0.237f
C52 VPB a_761_249# 0.0994f
C53 RESET_B a_1217_7# 6.03e-19
C54 a_651_373# a_761_249# 0.0977f
C55 a_543_7# VPB 0.0958f
C56 RESET_B a_1283_n19# 0.278f
C57 a_543_7# a_448_7# 0.0498f
C58 VPB RESET_B 0.138f
C59 a_448_7# RESET_B 2.45e-19
C60 a_543_7# a_651_373# 0.0572f
C61 a_193_7# VGND 0.0631f
C62 a_651_373# RESET_B 0.0122f
C63 VGND a_639_7# 0.00863f
C64 a_193_7# a_1108_7# 0.125f
C65 a_1270_373# a_761_249# 2.6e-19
C66 a_543_7# D 7.35e-20
C67 CLK RESET_B 1.09e-19
C68 a_193_7# a_1217_7# 2.36e-20
C69 VGND VPWR 0.0502f
C70 D RESET_B 4.72e-19
C71 a_193_7# a_1283_n19# 0.0424f
C72 a_193_7# VPB 0.171f
C73 a_193_7# a_448_7# 0.0642f
C74 VPWR a_1108_7# 0.173f
C75 a_1270_373# RESET_B 2.06e-19
C76 a_448_7# a_639_7# 4.61e-19
C77 a_193_7# a_651_373# 0.0346f
C78 a_27_7# VGND 0.254f
C79 RESET_B a_1462_7# 0.00288f
C80 VPWR a_1283_n19# 0.209f
C81 a_27_7# a_1108_7# 0.102f
C82 VPB VPWR 0.216f
C83 a_448_7# VPWR 0.0681f
C84 a_193_7# CLK 7.94e-19
C85 a_193_7# D 0.218f
C86 a_27_7# a_1217_7# 2.56e-19
C87 a_651_373# VPWR 0.129f
C88 a_27_7# a_1283_n19# 0.0436f
C89 a_27_7# VPB 0.262f
C90 a_193_7# a_1270_373# 1.46e-19
C91 a_27_7# a_448_7# 0.0931f
C92 CLK VPWR 0.0174f
C93 Q RESET_B 9.12e-19
C94 a_805_7# a_761_249# 3.69e-19
C95 D VPWR 0.0812f
C96 a_27_7# a_651_373# 9.73e-19
C97 a_543_7# a_761_249# 0.21f
C98 a_1270_373# VPWR 7.19e-19
C99 RESET_B a_761_249# 0.166f
C100 a_543_7# a_805_7# 0.00171f
C101 a_27_7# CLK 0.234f
C102 a_27_7# D 0.133f
C103 RESET_B a_805_7# 0.00316f
C104 Q VNB 0.0899f
C105 VGND VNB 1.02f
C106 VPWR VNB 0.831f
C107 RESET_B VNB 0.264f
C108 D VNB 0.16f
C109 CLK VNB 0.195f
C110 VPB VNB 1.85f
C111 a_651_373# VNB 0.00469f
C112 a_448_7# VNB 0.0139f
C113 a_1108_7# VNB 0.139f
C114 a_1283_n19# VNB 0.299f
C115 a_543_7# VNB 0.158f
C116 a_761_249# VNB 0.121f
C117 a_193_7# VNB 0.274f
C118 a_27_7# VNB 0.496f
.ends

.subckt sky130_fd_sc_hd__clkbuf_2 VGND VPWR VPB VNB A X a_27_7#
X0 VPWR A a_27_7# VPB sky130_fd_pr__pfet_01v8_hvt ad=0.162 pd=1.33 as=0.265 ps=2.53 w=1 l=0.15
X1 VGND A a_27_7# VNB sky130_fd_pr__nfet_01v8 ad=0.0683 pd=0.745 as=0.111 ps=1.37 w=0.42 l=0.15
X2 VPWR a_27_7# X VPB sky130_fd_pr__pfet_01v8_hvt ad=0.26 pd=2.52 as=0.135 ps=1.27 w=1 l=0.15
X3 X a_27_7# VPWR VPB sky130_fd_pr__pfet_01v8_hvt ad=0.135 pd=1.27 as=0.162 ps=1.33 w=1 l=0.15
X4 X a_27_7# VGND VNB sky130_fd_pr__nfet_01v8 ad=0.0567 pd=0.69 as=0.0683 ps=0.745 w=0.42 l=0.15
X5 VGND a_27_7# X VNB sky130_fd_pr__nfet_01v8 ad=0.109 pd=1.36 as=0.0567 ps=0.69 w=0.42 l=0.15
C0 X A 0.0123f
C1 VGND A 0.0453f
C2 a_27_7# VPWR 0.167f
C3 VPB A 0.0335f
C4 VPWR X 0.139f
C5 VPWR VGND 0.0381f
C6 a_27_7# X 0.165f
C7 VPWR VPB 0.0438f
C8 a_27_7# VGND 0.105f
C9 a_27_7# VPB 0.0686f
C10 VPWR A 0.022f
C11 a_27_7# A 0.209f
C12 X VGND 0.115f
C13 X VPB 0.00837f
C14 VPB VGND 0.00461f
C15 VGND VNB 0.263f
C16 X VNB 0.0731f
C17 VPWR VNB 0.221f
C18 A VNB 0.148f
C19 VPB VNB 0.428f
C20 a_27_7# VNB 0.32f
.ends

.subckt sky130_fd_sc_hd__or2_2 VPWR VGND VPB VNB X A B a_121_257# a_39_257#
X0 a_121_257# B a_39_257# VPB sky130_fd_pr__pfet_01v8_hvt ad=0.0441 pd=0.63 as=0.109 ps=1.36 w=0.42 l=0.15
X1 X a_39_257# VGND VNB sky130_fd_pr__nfet_01v8 ad=0.0878 pd=0.92 as=0.107 ps=1 w=0.65 l=0.15
X2 VGND a_39_257# X VNB sky130_fd_pr__nfet_01v8 ad=0.169 pd=1.82 as=0.0878 ps=0.92 w=0.65 l=0.15
X3 VGND A a_39_257# VNB sky130_fd_pr__nfet_01v8 ad=0.107 pd=1 as=0.0567 ps=0.69 w=0.42 l=0.15
X4 VPWR a_39_257# X VPB sky130_fd_pr__pfet_01v8_hvt ad=0.26 pd=2.52 as=0.135 ps=1.27 w=1 l=0.15
X5 X a_39_257# VPWR VPB sky130_fd_pr__pfet_01v8_hvt ad=0.135 pd=1.27 as=0.156 ps=1.36 w=1 l=0.15
X6 VPWR A a_121_257# VPB sky130_fd_pr__pfet_01v8_hvt ad=0.156 pd=1.36 as=0.0441 ps=0.63 w=0.42 l=0.15
X7 a_39_257# B VGND VNB sky130_fd_pr__nfet_01v8 ad=0.0567 pd=0.69 as=0.109 ps=1.36 w=0.42 l=0.15
C0 VPWR a_39_257# 0.0899f
C1 a_121_257# VPWR 0.00132f
C2 a_121_257# a_39_257# 0.00477f
C3 X VPWR 0.165f
C4 X a_39_257# 0.148f
C5 X a_121_257# 4.62e-19
C6 VPWR B 0.00593f
C7 B a_39_257# 0.0955f
C8 X B 1.51e-19
C9 VPWR A 0.00734f
C10 a_39_257# A 0.176f
C11 VPWR VPB 0.0714f
C12 VPB a_39_257# 0.0809f
C13 VGND VPWR 0.0475f
C14 VGND a_39_257# 0.14f
C15 a_121_257# VGND 4.62e-19
C16 X A 0.014f
C17 X VPB 0.0108f
C18 X VGND 0.0981f
C19 B A 0.0751f
C20 B VPB 0.0416f
C21 VGND B 0.0362f
C22 VPB A 0.0318f
C23 VGND A 0.0509f
C24 VGND VPB 0.00955f
C25 VGND VNB 0.323f
C26 X VNB 0.0724f
C27 A VNB 0.112f
C28 B VNB 0.178f
C29 VPWR VNB 0.284f
C30 VPB VNB 0.516f
C31 a_39_257# VNB 0.229f
.ends

.subckt sky130_fd_sc_hd__or2_1 VGND VPWR VPB VNB X A B a_68_257# a_150_257#
X0 a_68_257# B VGND VNB sky130_fd_pr__nfet_01v8 ad=0.0567 pd=0.69 as=0.109 ps=1.36 w=0.42 l=0.15
X1 a_150_257# B a_68_257# VPB sky130_fd_pr__pfet_01v8_hvt ad=0.0441 pd=0.63 as=0.109 ps=1.36 w=0.42 l=0.15
X2 VGND A a_68_257# VNB sky130_fd_pr__nfet_01v8 ad=0.1 pd=0.985 as=0.0567 ps=0.69 w=0.42 l=0.15
X3 X a_68_257# VGND VNB sky130_fd_pr__nfet_01v8 ad=0.169 pd=1.82 as=0.1 ps=0.985 w=0.65 l=0.15
X4 VPWR A a_150_257# VPB sky130_fd_pr__pfet_01v8_hvt ad=0.146 pd=1.34 as=0.0441 ps=0.63 w=0.42 l=0.15
X5 X a_68_257# VPWR VPB sky130_fd_pr__pfet_01v8_hvt ad=0.34 pd=2.68 as=0.146 ps=1.34 w=1 l=0.15
C0 B VPB 0.0462f
C1 VPWR a_150_257# 0.00193f
C2 A X 0.0131f
C3 A VGND 0.0347f
C4 VGND X 0.114f
C5 VPWR VPB 0.0805f
C6 A a_68_257# 0.158f
C7 a_68_257# X 0.105f
C8 VPWR B 0.00855f
C9 a_68_257# VGND 0.118f
C10 X a_150_257# 4.96e-19
C11 VGND a_150_257# 4.62e-19
C12 a_68_257# a_150_257# 0.00477f
C13 A VPB 0.031f
C14 X VPB 0.0209f
C15 B A 0.0751f
C16 B X 1.65e-19
C17 VGND VPB 0.0112f
C18 B VGND 0.0437f
C19 a_68_257# VPB 0.0611f
C20 B a_68_257# 0.0984f
C21 VPWR A 0.00846f
C22 VPWR X 0.129f
C23 VPWR VGND 0.0464f
C24 VPWR a_68_257# 0.089f
C25 VGND VNB 0.32f
C26 X VNB 0.101f
C27 A VNB 0.111f
C28 B VNB 0.183f
C29 VPWR VNB 0.269f
C30 VPB VNB 0.516f
C31 a_68_257# VNB 0.154f
.ends

.subckt sky130_fd_sc_hd__a21oi_1 VPWR VGND VPB VNB A2 A1 B1 Y a_199_7# a_113_257#
X0 VGND A2 a_199_7# VNB sky130_fd_pr__nfet_01v8 ad=0.172 pd=1.83 as=0.0959 ps=0.945 w=0.65 l=0.15
X1 a_113_257# A2 VPWR VPB sky130_fd_pr__pfet_01v8_hvt ad=0.265 pd=2.53 as=0.147 ps=1.29 w=1 l=0.15
X2 a_199_7# A1 Y VNB sky130_fd_pr__nfet_01v8 ad=0.0959 pd=0.945 as=0.091 ps=0.93 w=0.65 l=0.15
X3 Y B1 VGND VNB sky130_fd_pr__nfet_01v8 ad=0.091 pd=0.93 as=0.172 ps=1.83 w=0.65 l=0.15
X4 VPWR A1 a_113_257# VPB sky130_fd_pr__pfet_01v8_hvt ad=0.147 pd=1.29 as=0.14 ps=1.28 w=1 l=0.15
X5 a_113_257# B1 Y VPB sky130_fd_pr__pfet_01v8_hvt ad=0.14 pd=1.28 as=0.265 ps=2.53 w=1 l=0.15
C0 VPWR VPB 0.0424f
C1 VPWR A2 0.0147f
C2 VPWR a_113_257# 0.177f
C3 a_199_7# VPWR 4.76e-19
C4 VPB A2 0.0373f
C5 a_113_257# VPB 0.0108f
C6 a_113_257# A2 0.0476f
C7 a_199_7# a_113_257# 2.42e-19
C8 VPWR B1 0.0134f
C9 VPB B1 0.0389f
C10 a_113_257# B1 0.00758f
C11 VPWR A1 0.0154f
C12 VPWR VGND 0.037f
C13 VPWR Y 0.0447f
C14 VPB A1 0.0264f
C15 A2 A1 0.0912f
C16 a_113_257# A1 0.05f
C17 VGND VPB 0.00548f
C18 VGND A2 0.0495f
C19 Y VPB 0.0146f
C20 a_199_7# A1 0.00917f
C21 a_113_257# VGND 0.00882f
C22 Y A2 0.00122f
C23 a_113_257# Y 0.0909f
C24 a_199_7# VGND 0.00428f
C25 a_199_7# Y 0.00151f
C26 B1 A1 0.0518f
C27 VGND B1 0.0436f
C28 Y B1 0.113f
C29 VGND A1 0.078f
C30 Y A1 0.0813f
C31 Y VGND 0.0654f
C32 VGND VNB 0.286f
C33 VPWR VNB 0.211f
C34 Y VNB 0.0544f
C35 A2 VNB 0.144f
C36 A1 VNB 0.0981f
C37 B1 VNB 0.162f
C38 VPB VNB 0.428f
C39 a_113_257# VNB 0.034f
.ends

.subckt sky130_fd_sc_hd__mux2_1 VGND VPWR VPB VNB X A1 S A0 a_505_n19# a_535_334#
+ a_76_159# a_218_334# a_439_7# a_218_7#
X0 VPWR a_76_159# X VPB sky130_fd_pr__pfet_01v8_hvt ad=0.158 pd=1.39 as=0.26 ps=2.52 w=1 l=0.15
X1 VPWR a_505_n19# a_535_334# VPB sky130_fd_pr__pfet_01v8_hvt ad=0.0693 pd=0.75 as=0.0441 ps=0.63 w=0.42 l=0.15
X2 a_505_n19# S VPWR VPB sky130_fd_pr__pfet_01v8_hvt ad=0.118 pd=1.4 as=0.0693 ps=0.75 w=0.42 l=0.15
X3 a_76_159# A1 a_218_7# VNB sky130_fd_pr__nfet_01v8 ad=0.0997 pd=0.895 as=0.0693 ps=0.75 w=0.42 l=0.15
X4 a_505_n19# S VGND VNB sky130_fd_pr__nfet_01v8 ad=0.109 pd=1.36 as=0.145 ps=1.11 w=0.42 l=0.15
X5 a_439_7# A0 a_76_159# VNB sky130_fd_pr__nfet_01v8 ad=0.0693 pd=0.75 as=0.0997 ps=0.895 w=0.42 l=0.15
X6 a_218_334# S VPWR VPB sky130_fd_pr__pfet_01v8_hvt ad=0.0767 pd=0.785 as=0.158 ps=1.39 w=0.42 l=0.15
X7 a_76_159# A0 a_218_334# VPB sky130_fd_pr__pfet_01v8_hvt ad=0.193 pd=1.34 as=0.0767 ps=0.785 w=0.42 l=0.15
X8 a_535_334# A1 a_76_159# VPB sky130_fd_pr__pfet_01v8_hvt ad=0.0441 pd=0.63 as=0.193 ps=1.34 w=0.42 l=0.15
X9 VGND a_505_n19# a_439_7# VNB sky130_fd_pr__nfet_01v8 ad=0.145 pd=1.11 as=0.0693 ps=0.75 w=0.42 l=0.15
X10 VGND a_76_159# X VNB sky130_fd_pr__nfet_01v8 ad=0.113 pd=1.04 as=0.169 ps=1.82 w=0.65 l=0.15
X11 a_218_7# S VGND VNB sky130_fd_pr__nfet_01v8 ad=0.0693 pd=0.75 as=0.113 ps=1.04 w=0.42 l=0.15
C0 a_439_7# A1 0.00498f
C1 a_535_334# VPWR 8.63e-19
C2 a_439_7# VPWR 4.69e-19
C3 VPWR X 0.128f
C4 a_76_159# a_535_334# 6.64e-19
C5 a_76_159# X 0.0776f
C6 a_505_n19# S 0.198f
C7 a_505_n19# VGND 0.124f
C8 a_218_7# VPWR 4.95e-19
C9 VPB a_505_n19# 0.0781f
C10 S VGND 0.033f
C11 a_218_7# a_76_159# 0.00783f
C12 VPB S 0.168f
C13 VPB VGND 0.0134f
C14 a_505_n19# A0 0.0383f
C15 a_218_7# X 2.88e-19
C16 S A0 0.0341f
C17 A0 VGND 0.0432f
C18 VPB A0 0.107f
C19 a_505_n19# A1 0.0993f
C20 a_505_n19# VPWR 0.0818f
C21 S A1 0.0872f
C22 VGND A1 0.0752f
C23 S VPWR 0.392f
C24 VPWR VGND 0.0804f
C25 a_218_334# S 0.00688f
C26 a_218_334# VGND 7.29e-19
C27 a_76_159# S 0.318f
C28 VPB A1 0.0721f
C29 a_76_159# VGND 0.16f
C30 VPB VPWR 0.11f
C31 VPB a_76_159# 0.0481f
C32 S a_535_334# 0.00526f
C33 a_535_334# VGND 6.38e-19
C34 a_439_7# VGND 0.00354f
C35 A0 A1 0.267f
C36 S X 0.00823f
C37 VGND X 0.0586f
C38 A0 VPWR 0.00732f
C39 a_76_159# A0 0.0544f
C40 VPB X 0.012f
C41 a_218_7# VGND 0.00328f
C42 a_439_7# A0 0.00369f
C43 VPWR A1 0.0114f
C44 a_76_159# A1 0.187f
C45 a_218_334# VPWR 0.00177f
C46 a_76_159# VPWR 0.0542f
C47 a_76_159# a_218_334# 0.00557f
C48 VGND VNB 0.499f
C49 A1 VNB 0.14f
C50 A0 VNB 0.134f
C51 S VNB 0.268f
C52 VPWR VNB 0.419f
C53 X VNB 0.0924f
C54 VPB VNB 0.871f
C55 a_505_n19# VNB 0.247f
C56 a_76_159# VNB 0.139f
.ends

.subckt sky130_fd_sc_hd__decap_12 VGND VPWR VPB VNB
X0 VGND VPWR VGND VNB sky130_fd_pr__nfet_01v8 ad=0.143 pd=1.62 as=0.286 ps=3.24 w=0.55 l=4.73
X1 VPWR VGND VPWR VPB sky130_fd_pr__pfet_01v8_hvt ad=0.226 pd=2.26 as=0.452 ps=4.52 w=0.87 l=4.73
C0 VGND VPWR 2.01f
C1 VGND VPB 0.336f
C2 VPWR VPB 0.142f
C3 VPWR VNB 1.69f
C4 VGND VNB 1.45f
C5 VPB VNB 1.14f
.ends

.subckt sky130_fd_sc_hd__o21ba_1 VGND VPWR VPB VNB B1_N A1 A2 X a_448_7# a_544_257#
+ a_79_159# a_222_53#
X0 VGND A2 a_448_7# VNB sky130_fd_pr__nfet_01v8 ad=0.0878 pd=0.92 as=0.107 ps=0.98 w=0.65 l=0.15
X1 VPWR a_79_159# X VPB sky130_fd_pr__pfet_01v8_hvt ad=0.186 pd=1.41 as=0.26 ps=2.52 w=1 l=0.15
X2 a_222_53# B1_N VGND VNB sky130_fd_pr__nfet_01v8 ad=0.109 pd=1.36 as=0.1 ps=0.985 w=0.42 l=0.15
X3 a_448_7# A1 VGND VNB sky130_fd_pr__nfet_01v8 ad=0.172 pd=1.83 as=0.0878 ps=0.92 w=0.65 l=0.15
X4 VPWR A1 a_544_257# VPB sky130_fd_pr__pfet_01v8_hvt ad=0.28 pd=2.56 as=0.105 ps=1.21 w=1 l=0.15
X5 a_448_7# a_222_53# a_79_159# VNB sky130_fd_pr__nfet_01v8 ad=0.107 pd=0.98 as=0.169 ps=1.82 w=0.65 l=0.15
X6 a_222_53# B1_N VPWR VPB sky130_fd_pr__pfet_01v8_hvt ad=0.118 pd=1.4 as=0.186 ps=1.41 w=0.42 l=0.15
X7 a_79_159# a_222_53# VPWR VPB sky130_fd_pr__pfet_01v8_hvt ad=0.165 pd=1.33 as=0.3 ps=2.6 w=1 l=0.15
X8 a_544_257# A2 a_79_159# VPB sky130_fd_pr__pfet_01v8_hvt ad=0.105 pd=1.21 as=0.165 ps=1.33 w=1 l=0.15
X9 VGND a_79_159# X VNB sky130_fd_pr__nfet_01v8 ad=0.1 pd=0.985 as=0.169 ps=1.82 w=0.65 l=0.15
C0 VPWR B1_N 0.00448f
C1 VPWR a_222_53# 0.0224f
C2 X VPB 0.0132f
C3 VGND a_544_257# 0.00166f
C4 a_79_159# X 0.11f
C5 VGND VPWR 0.0742f
C6 a_448_7# VPB 6.33e-19
C7 B1_N a_222_53# 0.106f
C8 VGND A1 0.017f
C9 a_79_159# a_448_7# 0.0461f
C10 a_79_159# VPB 0.0676f
C11 A2 a_448_7# 0.0581f
C12 A2 VPB 0.0259f
C13 VGND B1_N 0.0161f
C14 VGND a_222_53# 0.0731f
C15 A2 a_79_159# 0.0609f
C16 X VPWR 0.0729f
C17 a_448_7# a_544_257# 0.00203f
C18 VPWR a_448_7# 0.00501f
C19 VPWR VPB 0.11f
C20 A1 a_448_7# 0.0574f
C21 A1 VPB 0.0384f
C22 a_79_159# a_544_257# 0.00594f
C23 X B1_N 0.00114f
C24 a_79_159# VPWR 0.263f
C25 a_79_159# A1 0.00575f
C26 X a_222_53# 0.00374f
C27 A2 a_544_257# 0.0012f
C28 A2 VPWR 0.0227f
C29 a_448_7# B1_N 2.55e-19
C30 B1_N VPB 0.0419f
C31 A2 A1 0.0793f
C32 a_448_7# a_222_53# 0.00596f
C33 VPB a_222_53# 0.0639f
C34 a_79_159# B1_N 0.0833f
C35 VGND X 0.0609f
C36 a_79_159# a_222_53# 0.221f
C37 A2 a_222_53# 0.0562f
C38 VGND a_448_7# 0.168f
C39 VGND VPB 0.0116f
C40 VGND a_79_159# 0.0836f
C41 VPWR a_544_257# 0.0132f
C42 VGND A2 0.0157f
C43 A1 VPWR 0.0508f
C44 VGND VNB 0.468f
C45 B1_N VNB 0.105f
C46 VPWR VNB 0.4f
C47 X VNB 0.0865f
C48 A1 VNB 0.136f
C49 A2 VNB 0.0904f
C50 VPB VNB 0.782f
C51 a_448_7# VNB 0.0324f
C52 a_222_53# VNB 0.159f
C53 a_79_159# VNB 0.148f
.ends

.subckt sky130_fd_sc_hd__buf_8 VGND VPWR VPB VNB A X a_27_7#
X0 X a_27_7# VGND VNB sky130_fd_pr__nfet_01v8 ad=0.0878 pd=0.92 as=0.0878 ps=0.92 w=0.65 l=0.15
X1 VGND a_27_7# X VNB sky130_fd_pr__nfet_01v8 ad=0.0878 pd=0.92 as=0.0878 ps=0.92 w=0.65 l=0.15
X2 X a_27_7# VGND VNB sky130_fd_pr__nfet_01v8 ad=0.0878 pd=0.92 as=0.0878 ps=0.92 w=0.65 l=0.15
X3 X a_27_7# VPWR VPB sky130_fd_pr__pfet_01v8_hvt ad=0.135 pd=1.27 as=0.135 ps=1.27 w=1 l=0.15
X4 VPWR A a_27_7# VPB sky130_fd_pr__pfet_01v8_hvt ad=0.135 pd=1.27 as=0.26 ps=2.52 w=1 l=0.15