* SPICE3 file created from user_analog_project_wrapper.ext - technology: sky130B

.subckt M2_1 a_n98_n109# a_n40_n197# a_40_n109# VSUBS
X0 a_40_n109# a_n40_n197# a_n98_n109# VSUBS sky130_fd_pr__nfet_01v8_lvt ad=0.29 pd=2.58 as=0.29 ps=2.58 w=1 l=0.4
.ends

.subckt M2_inv a_n40_n201# a_40_n104# w_n236_n324# a_n98_n104# VSUBS
X0 a_40_n104# a_n40_n201# a_n98_n104# w_n236_n324# sky130_fd_pr__pfet_01v8_lvt ad=0.29 pd=2.58 as=0.29 ps=2.58 w=1 l=0.4
.ends

.subckt M1_inv a_40_n171# a_n40_n197# a_n98_n171# VSUBS
X0 a_40_n171# a_n40_n197# a_n98_n171# VSUBS sky130_fd_pr__nfet_01v8_lvt ad=0.29 pd=2.58 as=0.29 ps=2.58 w=1 l=0.4
.ends

.subckt inv_lvt M2_inv_0/a_n98_n104# M2_inv_0/w_n236_n324# M1_inv_0/a_n98_n171# m1_170_505#
+ m2_289_257# VSUBS
XM2_inv_0 m1_170_505# m2_289_257# M2_inv_0/w_n236_n324# M2_inv_0/a_n98_n104# VSUBS
+ M2_inv
XM1_inv_0 m2_289_257# m1_170_505# M1_inv_0/a_n98_n171# VSUBS M1_inv
.ends

.subckt M1_2 a_n98_n109# a_n40_n197# a_40_n109# VSUBS
X0 a_40_n109# a_n40_n197# a_n98_n109# VSUBS sky130_fd_pr__nfet_01v8_lvt ad=0.29 pd=2.58 as=0.29 ps=2.58 w=1 l=0.4
.ends

.subckt latch vdd Qn S R Q vss
XM2_1_0 vss m1_1673_493# Q vss M2_1
Xinv_lvt_0 vdd vdd vss R m1_1673_493# vss inv_lvt
Xinv_lvt_1 vdd vdd vss S m1_458_623# vss inv_lvt
Xinv_lvt_2 vdd vdd vss Qn Q vss inv_lvt
Xinv_lvt_3 vdd vdd vss Q Qn vss inv_lvt
XM1_2_0 Qn m1_458_623# vss vss M1_2
C0 vdd vss 6.99f
.ends

.subckt inv2 w_0_269# a_67_305# a_59_207# a_149_55# a_67_55# VSUBS
X0 a_67_55# a_59_207# a_149_55# VSUBS sky130_fd_pr__nfet_01v8 ad=0.169 pd=1.82 as=0.0878 ps=0.92 w=0.65 l=0.15
X1 a_149_55# a_59_207# a_67_55# VSUBS sky130_fd_pr__nfet_01v8 ad=0.0878 pd=0.92 as=0.169 ps=1.82 w=0.65 l=0.15
X2 a_67_305# a_59_207# a_149_55# w_0_269# sky130_fd_pr__pfet_01v8_hvt ad=0.26 pd=2.52 as=0.135 ps=1.27 w=1 l=0.15
X3 a_149_55# a_59_207# a_67_305# w_0_269# sky130_fd_pr__pfet_01v8_hvt ad=0.135 pd=1.27 as=0.26 ps=2.52 w=1 l=0.15
.ends

.subckt decap_8 a_65_55# a_65_331# w_0_269# VSUBS
X0 a_65_55# a_65_331# a_65_55# VSUBS sky130_fd_pr__nfet_01v8 ad=0.143 pd=1.62 as=0.286 ps=3.24 w=0.55 l=2.89
X1 a_65_331# a_65_55# a_65_331# w_0_269# sky130_fd_pr__pfet_01v8_hvt ad=0.226 pd=2.26 as=0.452 ps=4.52 w=0.87 l=2.89
.ends

.subckt M1_3 a_207_n176# a_n29_n176# a_26_55# a_n328_55# a_89_n176# a_n446_55# a_n564_55#
+ a_n210_55# a_n501_n176# a_561_n176# a_n383_n176# a_498_55# a_144_55# a_443_n176#
+ a_n265_n176# a_262_55# a_380_55# a_n619_n176# a_n92_55# w_n757_n324# a_325_n176#
+ a_n147_n176# VSUBS
X0 a_n383_n176# a_n446_55# a_n501_n176# w_n757_n324# sky130_fd_pr__pfet_01v8 ad=0.145 pd=1.29 as=0.145 ps=1.29 w=1 l=0.3
X1 a_n29_n176# a_n92_55# a_n147_n176# w_n757_n324# sky130_fd_pr__pfet_01v8 ad=0.145 pd=1.29 as=0.145 ps=1.29 w=1 l=0.3
X2 a_325_n176# a_262_55# a_207_n176# w_n757_n324# sky130_fd_pr__pfet_01v8 ad=0.145 pd=1.29 as=0.145 ps=1.29 w=1 l=0.3
X3 a_561_n176# a_498_55# a_443_n176# w_n757_n324# sky130_fd_pr__pfet_01v8 ad=0.29 pd=2.58 as=0.145 ps=1.29 w=1 l=0.3
X4 a_n265_n176# a_n328_55# a_n383_n176# w_n757_n324# sky130_fd_pr__pfet_01v8 ad=0.145 pd=1.29 as=0.145 ps=1.29 w=1 l=0.3
X5 a_89_n176# a_26_55# a_n29_n176# w_n757_n324# sky130_fd_pr__pfet_01v8 ad=0.145 pd=1.29 as=0.145 ps=1.29 w=1 l=0.3
X6 a_207_n176# a_144_55# a_89_n176# w_n757_n324# sky130_fd_pr__pfet_01v8 ad=0.145 pd=1.29 as=0.145 ps=1.29 w=1 l=0.3
X7 a_n501_n176# a_n564_55# a_n619_n176# w_n757_n324# sky130_fd_pr__pfet_01v8 ad=0.145 pd=1.29 as=0.29 ps=2.58 w=1 l=0.3
X8 a_n147_n176# a_n210_55# a_n265_n176# w_n757_n324# sky130_fd_pr__pfet_01v8 ad=0.145 pd=1.29 as=0.145 ps=1.29 w=1 l=0.3
X9 a_443_n176# a_380_55# a_325_n176# w_n757_n324# sky130_fd_pr__pfet_01v8 ad=0.145 pd=1.29 as=0.145 ps=1.29 w=1 l=0.3
C0 w_n757_n324# VSUBS 3.39f
.ends

.subckt M2_2 a_26_51# a_89_n171# a_n328_51# a_n446_51# a_n564_51# a_n501_n171# a_n210_51#
+ a_561_n171# a_n383_n171# a_498_51# a_443_n171# a_144_51# a_n265_n171# a_262_51#
+ a_n619_n171# a_380_51# a_n92_51# a_n721_n283# a_325_n171# a_n147_n171# a_207_n171#
+ a_n29_n171#
X0 a_89_n171# a_26_51# a_n29_n171# a_n721_n283# sky130_fd_pr__nfet_01v8 ad=0.145 pd=1.29 as=0.145 ps=1.29 w=1 l=0.3
X1 a_207_n171# a_144_51# a_89_n171# a_n721_n283# sky130_fd_pr__nfet_01v8 ad=0.145 pd=1.29 as=0.145 ps=1.29 w=1 l=0.3
X2 a_n147_n171# a_n210_51# a_n265_n171# a_n721_n283# sky130_fd_pr__nfet_01v8 ad=0.145 pd=1.29 as=0.145 ps=1.29 w=1 l=0.3
X3 a_n501_n171# a_n564_51# a_n619_n171# a_n721_n283# sky130_fd_pr__nfet_01v8 ad=0.145 pd=1.29 as=0.29 ps=2.58 w=1 l=0.3
X4 a_443_n171# a_380_51# a_325_n171# a_n721_n283# sky130_fd_pr__nfet_01v8 ad=0.145 pd=1.29 as=0.145 ps=1.29 w=1 l=0.3
X5 a_n383_n171# a_n446_51# a_n501_n171# a_n721_n283# sky130_fd_pr__nfet_01v8 ad=0.145 pd=1.29 as=0.145 ps=1.29 w=1 l=0.3
X6 a_n29_n171# a_n92_51# a_n147_n171# a_n721_n283# sky130_fd_pr__nfet_01v8 ad=0.145 pd=1.29 as=0.145 ps=1.29 w=1 l=0.3
X7 a_325_n171# a_262_51# a_207_n171# a_n721_n283# sky130_fd_pr__nfet_01v8 ad=0.145 pd=1.29 as=0.145 ps=1.29 w=1 l=0.3
X8 a_561_n171# a_498_51# a_443_n171# a_n721_n283# sky130_fd_pr__nfet_01v8 ad=0.29 pd=2.58 as=0.145 ps=1.29 w=1 l=0.3
X9 a_n265_n171# a_n328_51# a_n383_n171# a_n721_n283# sky130_fd_pr__nfet_01v8 ad=0.145 pd=1.29 as=0.145 ps=1.29 w=1 l=0.3
.ends

.subckt inv_4 w_0_269# a_59_207# a_75_55# a_75_305# a_157_55# VSUBS
X0 a_75_55# a_59_207# a_157_55# VSUBS sky130_fd_pr__nfet_01v8 ad=0.0878 pd=0.92 as=0.0878 ps=0.92 w=0.65 l=0.15
X1 a_75_305# a_59_207# a_157_55# w_0_269# sky130_fd_pr__pfet_01v8_hvt ad=0.26 pd=2.52 as=0.135 ps=1.27 w=1 l=0.15
X2 a_157_55# a_59_207# a_75_305# w_0_269# sky130_fd_pr__pfet_01v8_hvt ad=0.135 pd=1.27 as=0.135 ps=1.27 w=1 l=0.15
X3 a_157_55# a_59_207# a_75_55# VSUBS sky130_fd_pr__nfet_01v8 ad=0.0878 pd=0.92 as=0.169 ps=1.82 w=0.65 l=0.15
X4 a_157_55# a_59_207# a_75_55# VSUBS sky130_fd_pr__nfet_01v8 ad=0.0878 pd=0.92 as=0.0878 ps=0.92 w=0.65 l=0.15
X5 a_75_305# a_59_207# a_157_55# w_0_269# sky130_fd_pr__pfet_01v8_hvt ad=0.135 pd=1.27 as=0.135 ps=1.27 w=1 l=0.15
X6 a_75_55# a_59_207# a_157_55# VSUBS sky130_fd_pr__nfet_01v8 ad=0.169 pd=1.82 as=0.0878 ps=0.92 w=0.65 l=0.15
X7 a_157_55# a_59_207# a_75_305# w_0_269# sky130_fd_pr__pfet_01v8_hvt ad=0.135 pd=1.27 as=0.26 ps=2.52 w=1 l=0.15
.ends

.subckt decap_3 a_65_55# a_65_331# w_0_269# VSUBS
X0 a_65_55# a_65_331# a_65_55# VSUBS sky130_fd_pr__nfet_01v8 ad=0.143 pd=1.62 as=0.286 ps=3.24 w=0.55 l=0.59
X1 a_65_331# a_65_55# a_65_331# w_0_269# sky130_fd_pr__pfet_01v8_hvt ad=0.226 pd=2.26 as=0.452 ps=4.52 w=0.87 l=0.59
.ends

.subckt sw_top out en m2_1158_361# m2_990_200# inv_4_1/w_0_269# vdd in vss
Xdecap_8_0 vss vdd inv_4_1/w_0_269# vss decap_8
XM1_3_0 out out m2_1158_361# m2_1158_361# in m2_1158_361# m2_1158_361# m2_1158_361#
+ out in in m2_1158_361# m2_1158_361# out out m2_1158_361# m2_1158_361# in m2_1158_361#
+ vdd in in vss M1_3
XM2_2_0 m2_990_200# in m2_990_200# m2_990_200# m2_990_200# out m2_990_200# in in m2_990_200#
+ out m2_990_200# out m2_990_200# in m2_990_200# m2_990_200# vss in in out out M2_2
Xinv_4_0 inv_4_1/w_0_269# m2_1158_361# vss vdd m2_990_200# vss inv_4
Xinv_4_1 inv_4_1/w_0_269# en vss vdd m2_1158_361# vss inv_4
Xdecap_3_0 vss vdd inv_4_1/w_0_269# vss decap_3
C0 in out 2.9f
C1 m2_990_200# vss 2.04f
C2 vdd vss 5.69f
.ends

.subckt C7 m3_n450_n340# c1_n250_n240# VSUBS
X0 c1_n250_n240# m3_n450_n340# sky130_fd_pr__cap_mim_m3_1 l=2 w=2
.ends

.subckt DUMMY m3_n450_n340# c1_n250_n240# VSUBS
X0 c1_n250_n240# m3_n450_n340# sky130_fd_pr__cap_mim_m3_1 l=2 w=2
.ends

.subckt C6 m3_n450_n340# c1_n250_n240# VSUBS
X0 c1_n250_n240# m3_n450_n340# sky130_fd_pr__cap_mim_m3_1 l=2 w=2
.ends

.subckt CDUM m3_n450_n340# c1_n250_n240# VSUBS
X0 c1_n250_n240# m3_n450_n340# sky130_fd_pr__cap_mim_m3_1 l=2 w=2
.ends

.subckt C4 m3_n450_n340# c1_n250_n240# VSUBS
X0 c1_n250_n240# m3_n450_n340# sky130_fd_pr__cap_mim_m3_1 l=2 w=2
.ends

.subckt C2 m3_n450_n340# c1_n250_n240# VSUBS
X0 c1_n250_n240# m3_n450_n340# sky130_fd_pr__cap_mim_m3_1 l=2 w=2
.ends

.subckt C5 m3_n450_n340# c1_n250_n240# VSUBS
X0 c1_n250_n240# m3_n450_n340# sky130_fd_pr__cap_mim_m3_1 l=2 w=2
.ends

.subckt C3 m3_n450_n340# c1_n250_n240# VSUBS
X0 c1_n250_n240# m3_n450_n340# sky130_fd_pr__cap_mim_m3_1 l=2 w=2
.ends

.subckt C1 m3_n450_n340# c1_n250_n240# VSUBS
X0 c1_n250_n240# m3_n450_n340# sky130_fd_pr__cap_mim_m3_1 l=2 w=2
.ends

.subckt C0_1 m3_n450_n340# c1_n250_n240# VSUBS
X0 c1_n250_n240# m3_n450_n340# sky130_fd_pr__cap_mim_m3_1 l=2 w=2
.ends

.subckt carray n5 n7 n6 n2 n3 n4 n1 n0 ndum top VSUBS
XC7_121 n7 top VSUBS C7
XC7_110 n7 top VSUBS C7
XDUMMY_80 via23_4_712/m2_1_40# top VSUBS DUMMY
XC6_20 n6 top VSUBS C6
XC6_53 n6 top VSUBS C6
XC6_31 n6 top VSUBS C6
XC6_42 n6 top VSUBS C6
XC7_122 n7 top VSUBS C7
XC7_100 n7 top VSUBS C7
XC7_111 n7 top VSUBS C7
XDUMMY_81 via23_4_709/m2_1_40# top VSUBS DUMMY
XDUMMY_70 via23_4_642/m2_1_40# top VSUBS DUMMY
XC6_21 n6 top VSUBS C6
XC6_10 n6 top VSUBS C6
XC6_54 n6 top VSUBS C6
XC6_32 n6 top VSUBS C6
XC6_43 n6 top VSUBS C6
XC6_0 n6 top VSUBS C6
XC7_123 n7 top VSUBS C7
XC7_101 n7 top VSUBS C7
XC7_112 n7 top VSUBS C7
XDUMMY_71 via23_4_641/m2_1_40# top VSUBS DUMMY
XDUMMY_82 via23_4_439/m2_1_40# top VSUBS DUMMY
XDUMMY_60 via23_4_448/m2_1_40# top VSUBS DUMMY
XC6_44 n6 top VSUBS C6
XC6_22 n6 top VSUBS C6
XC6_55 n6 top VSUBS C6
XC6_11 n6 top VSUBS C6
XC6_33 n6 top VSUBS C6
XC6_1 n6 top VSUBS C6
XC7_124 n7 top VSUBS C7
XC7_102 n7 top VSUBS C7
XC7_113 n7 top VSUBS C7
XDUMMY_72 via23_4_676/m2_1_40# top VSUBS DUMMY
XDUMMY_83 via23_4_675/m2_1_40# top VSUBS DUMMY
XDUMMY_61 via23_4_588/m2_1_40# top VSUBS DUMMY
XDUMMY_50 via23_4_429/m2_1_40# top VSUBS DUMMY
XC6_56 n6 top VSUBS C6
XC6_12 n6 top VSUBS C6
XC6_45 n6 top VSUBS C6
XC6_23 n6 top VSUBS C6
XC6_34 n6 top VSUBS C6
XC6_2 n6 top VSUBS C6
XCDUM_0 ndum top VSUBS CDUM
XC7_103 n7 top VSUBS C7
XC7_125 n7 top VSUBS C7
XC7_114 n7 top VSUBS C7
XDUMMY_73 via23_4_677/m2_1_40# top VSUBS DUMMY
XDUMMY_62 via23_4_589/m2_1_40# top VSUBS DUMMY
XDUMMY_40 via23_4_326/m2_1_40# top VSUBS DUMMY
XDUMMY_51 via23_4_414/m2_1_40# top VSUBS DUMMY
XC6_57 n6 top VSUBS C6
XC6_24 n6 top VSUBS C6
XC6_46 n6 top VSUBS C6
XC6_13 n6 top VSUBS C6
XC6_35 n6 top VSUBS C6
XDUMMY_0 via23_4_3/m2_1_40# top VSUBS DUMMY
XC6_3 n6 top VSUBS C6
XC4_0 n4 top VSUBS C4
XC7_104 n7 top VSUBS C7
XC7_115 n7 top VSUBS C7
XC7_126 n7 top VSUBS C7
XDUMMY_74 via23_4_678/m2_1_40# top VSUBS DUMMY
XDUMMY_63 via23_4_590/m2_1_40# top VSUBS DUMMY
XDUMMY_30 via23_4_251/m2_1_40# top VSUBS DUMMY
XDUMMY_52 via23_4_381/m2_1_40# top VSUBS DUMMY
XDUMMY_41 via23_4_89/m2_1_40# top VSUBS DUMMY
XC6_47 n6 top VSUBS C6
XC6_14 n6 top VSUBS C6
XC6_58 n6 top VSUBS C6
XC6_25 n6 top VSUBS C6
XC6_36 n6 top VSUBS C6
XDUMMY_1 via23_4_9/m2_1_40# top VSUBS DUMMY
XC7_90 n7 top VSUBS C7
XC6_4 n6 top VSUBS C6
XC4_1 n4 top VSUBS C4
XC7_116 n7 top VSUBS C7
XC7_105 n7 top VSUBS C7
XC7_127 n7 top VSUBS C7
XDUMMY_20 via23_4_199/m2_1_40# top VSUBS DUMMY
XDUMMY_64 via23_4_584/m2_1_40# top VSUBS DUMMY
XDUMMY_31 via23_4_245/m2_1_40# top VSUBS DUMMY
XDUMMY_75 via23_4_704/m2_1_40# top VSUBS DUMMY
XDUMMY_42 via23_4_366/m2_1_40# top VSUBS DUMMY
XDUMMY_53 via23_4_449/m2_1_40# top VSUBS DUMMY
XC6_26 n6 top VSUBS C6
XC6_15 n6 top VSUBS C6
XC6_59 n6 top VSUBS C6
XC6_48 n6 top VSUBS C6
XDUMMY_2 via23_4_1/m2_1_40# top VSUBS DUMMY
XC6_37 n6 top VSUBS C6
XC7_91 n7 top VSUBS C7
XC7_80 n7 top VSUBS C7
XC6_5 n6 top VSUBS C6
XC4_2 n4 top VSUBS C4
XC7_117 n7 top VSUBS C7
XC7_106 n7 top VSUBS C7
XDUMMY_76 via23_4_702/m2_1_40# top VSUBS DUMMY
XDUMMY_65 via23_4_600/m2_1_40# top VSUBS DUMMY
XDUMMY_32 via23_4_331/m2_1_40# top VSUBS DUMMY
XDUMMY_21 via23_4_198/m2_1_40# top VSUBS DUMMY
XDUMMY_43 via23_4_367/m2_1_40# top VSUBS DUMMY
XDUMMY_54 via23_4_446/m2_1_40# top VSUBS DUMMY
XDUMMY_10 via23_4_90/m2_1_40# top VSUBS DUMMY
XC6_27 n6 top VSUBS C6
XC6_16 n6 top VSUBS C6
XC6_49 n6 top VSUBS C6
XC6_38 n6 top VSUBS C6
XDUMMY_3 via23_4_2/m2_1_40# top VSUBS DUMMY
XC7_92 n7 top VSUBS C7
XC7_81 n7 top VSUBS C7
XC7_70 n7 top VSUBS C7
XC6_6 n6 top VSUBS C6
XC4_3 n4 top VSUBS C4
XC7_118 n7 top VSUBS C7
XC7_107 n7 top VSUBS C7
XC2_0 n2 top VSUBS C2
XDUMMY_66 via23_4_601/m2_1_40# top VSUBS DUMMY
XDUMMY_33 via23_4_332/m2_1_40# top VSUBS DUMMY
XDUMMY_22 via23_4_220/m2_1_40# top VSUBS DUMMY
XDUMMY_77 via23_4_705/m2_1_40# top VSUBS DUMMY
XDUMMY_44 via23_4_368/m2_1_40# top VSUBS DUMMY
XDUMMY_55 via23_4_447/m2_1_40# top VSUBS DUMMY
XDUMMY_11 via23_4_96/m2_1_40# top VSUBS DUMMY
XC6_28 n6 top VSUBS C6
XC6_17 n6 top VSUBS C6
XC6_39 n6 top VSUBS C6
XDUMMY_4 via23_4_20/m2_1_40# top VSUBS DUMMY
XC7_60 n7 top VSUBS C7
XC7_93 n7 top VSUBS C7
XC7_82 n7 top VSUBS C7
XC7_71 n7 top VSUBS C7
XC6_7 n6 top VSUBS C6
XC4_4 n4 top VSUBS C4
XC7_119 n7 top VSUBS C7
XC7_108 n7 top VSUBS C7
XC2_1 n2 top VSUBS C2
XDUMMY_78 via23_4_710/m2_1_40# top VSUBS DUMMY
XDUMMY_67 via23_4_599/m2_1_40# top VSUBS DUMMY
XDUMMY_34 via23_4_333/m2_1_40# top VSUBS DUMMY
XDUMMY_23 via23_4_213/m2_1_40# top VSUBS DUMMY
XDUMMY_45 via23_4_369/m2_1_40# top VSUBS DUMMY
XDUMMY_56 via23_4_458/m2_1_40# top VSUBS DUMMY
XDUMMY_12 via23_4_103/m2_1_40# top VSUBS DUMMY
XC6_18 n6 top VSUBS C6
XC6_29 n6 top VSUBS C6
XDUMMY_5 via23_4_21/m2_1_40# top VSUBS DUMMY
XC7_61 n7 top VSUBS C7
XC7_94 n7 top VSUBS C7
XC7_50 n7 top VSUBS C7
XC7_72 n7 top VSUBS C7
XC7_83 n7 top VSUBS C7
XC6_8 n6 top VSUBS C6
XC4_5 n4 top VSUBS C4
XC7_109 n7 top VSUBS C7
XC2_2 n2 top VSUBS C2
XDUMMY_79 via23_4_711/m2_1_40# top VSUBS DUMMY
XDUMMY_68 via23_4_598/m2_1_40# top VSUBS DUMMY
XDUMMY_35 via23_4_347/m2_1_40# top VSUBS DUMMY
XDUMMY_24 via23_4_229/m2_1_40# top VSUBS DUMMY
XDUMMY_46 via23_4_378/m2_1_40# top VSUBS DUMMY
XDUMMY_57 via23_4_455/m2_1_40# top VSUBS DUMMY
XDUMMY_13 via23_4_91/m2_1_40# top VSUBS DUMMY
XC6_19 n6 top VSUBS C6
XDUMMY_6 via23_4_22/m2_1_40# top VSUBS DUMMY
XC7_62 n7 top VSUBS C7
XC7_40 n7 top VSUBS C7
XC7_95 n7 top VSUBS C7
XC7_51 n7 top VSUBS C7
XC7_73 n7 top VSUBS C7
XC7_84 n7 top VSUBS C7
XC6_9 n6 top VSUBS C6
XC4_6 n4 top VSUBS C4
XC2_3 n2 top VSUBS C2
XDUMMY_36 via23_4_354/m2_1_40# top VSUBS DUMMY
XDUMMY_25 via23_4_228/m2_1_40# top VSUBS DUMMY
XDUMMY_14 via23_4_94/m2_1_40# top VSUBS DUMMY
XDUMMY_69 via23_4_635/m2_1_40# top VSUBS DUMMY
XDUMMY_47 via23_4_379/m2_1_40# top VSUBS DUMMY
XDUMMY_58 via23_4_459/m2_1_40# top VSUBS DUMMY
XDUMMY_7 via23_4_23/m2_1_40# top VSUBS DUMMY
XC7_41 n7 top VSUBS C7
XC7_63 n7 top VSUBS C7
XC7_96 n7 top VSUBS C7
XC7_52 n7 top VSUBS C7
XC7_30 n7 top VSUBS C7
XC7_74 n7 top VSUBS C7
XC7_85 n7 top VSUBS C7
XC4_7 n4 top VSUBS C4
XDUMMY_37 via23_4_345/m2_1_40# top VSUBS DUMMY
XDUMMY_26 via23_4_230/m2_1_40# top VSUBS DUMMY
XDUMMY_48 via23_4_380/m2_1_40# top VSUBS DUMMY
XDUMMY_59 via23_4_460/m2_1_40# top VSUBS DUMMY
XDUMMY_15 via23_4_117/m2_1_40# top VSUBS DUMMY
XDUMMY_8 via23_4_87/m2_1_40# top VSUBS DUMMY
XC7_97 n7 top VSUBS C7
XC7_42 n7 top VSUBS C7
XC7_53 n7 top VSUBS C7
XC7_31 n7 top VSUBS C7
XC7_86 n7 top VSUBS C7
XC7_20 n7 top VSUBS C7
XC7_64 n7 top VSUBS C7
XC7_75 n7 top VSUBS C7
XC4_10 n4 top VSUBS C4
XC4_8 n4 top VSUBS C4
XDUMMY_38 via23_4_346/m2_1_40# top VSUBS DUMMY
XDUMMY_27 via23_4_218/m2_1_40# top VSUBS DUMMY
XDUMMY_16 via23_4_111/m2_1_40# top VSUBS DUMMY
XDUMMY_49 via23_4_419/m2_1_40# top VSUBS DUMMY
XDUMMY_9 via23_4_88/m2_1_40# top VSUBS DUMMY
XC7_98 n7 top VSUBS C7
XC7_43 n7 top VSUBS C7
XC7_54 n7 top VSUBS C7
XC7_32 n7 top VSUBS C7
XC7_87 n7 top VSUBS C7
XC7_65 n7 top VSUBS C7
XC7_10 n7 top VSUBS C7
XC7_21 n7 top VSUBS C7
XC7_76 n7 top VSUBS C7
XC4_11 n4 top VSUBS C4
XC4_9 n4 top VSUBS C4
XDUMMY_39 via23_4_334/m2_1_40# top VSUBS DUMMY
XDUMMY_28 via23_4_249/m2_1_40# top VSUBS DUMMY
XDUMMY_17 via23_4_128/m2_1_40# top VSUBS DUMMY
XC7_99 n7 top VSUBS C7
XC7_33 n7 top VSUBS C7
XC7_88 n7 top VSUBS C7
XC7_55 n7 top VSUBS C7
XC7_44 n7 top VSUBS C7
XC7_66 n7 top VSUBS C7
XC7_11 n7 top VSUBS C7
XC7_77 n7 top VSUBS C7
XC7_22 n7 top VSUBS C7
XC4_12 n4 top VSUBS C4
XDUMMY_29 via23_4_250/m2_1_40# top VSUBS DUMMY
XDUMMY_18 via23_4_95/m2_1_40# top VSUBS DUMMY
XC7_45 n7 top VSUBS C7
XC7_56 n7 top VSUBS C7
XC7_34 n7 top VSUBS C7
XC7_89 n7 top VSUBS C7
XC7_12 n7 top VSUBS C7
XC7_23 n7 top VSUBS C7
XC7_78 n7 top VSUBS C7
XC7_67 n7 top VSUBS C7
XC4_13 n4 top VSUBS C4
XDUMMY_19 via23_4_200/m2_1_40# top VSUBS DUMMY
XC7_46 n7 top VSUBS C7
XC7_57 n7 top VSUBS C7
XC7_24 n7 top VSUBS C7
XC7_35 n7 top VSUBS C7
XC7_13 n7 top VSUBS C7
XC7_79 n7 top VSUBS C7
XC7_68 n7 top VSUBS C7
XC4_14 n4 top VSUBS C4
XC7_36 n7 top VSUBS C7
XC7_58 n7 top VSUBS C7
XC7_47 n7 top VSUBS C7
XC7_25 n7 top VSUBS C7
XC7_14 n7 top VSUBS C7
XC7_69 n7 top VSUBS C7
XC4_15 n4 top VSUBS C4
XC7_0 n7 top VSUBS C7
XC7_37 n7 top VSUBS C7
XC7_59 n7 top VSUBS C7
XC7_26 n7 top VSUBS C7
XC7_48 n7 top VSUBS C7
XC7_15 n7 top VSUBS C7
XC7_1 n7 top VSUBS C7
XC7_38 n7 top VSUBS C7
XC7_27 n7 top VSUBS C7
XC7_49 n7 top VSUBS C7
XC7_16 n7 top VSUBS C7
XC7_2 n7 top VSUBS C7
XC7_39 n7 top VSUBS C7
XC7_28 n7 top VSUBS C7
XC7_17 n7 top VSUBS C7
XC7_3 n7 top VSUBS C7
XC5_0 n5 top VSUBS C5
XC7_29 n7 top VSUBS C7
XC7_18 n7 top VSUBS C7
XC7_4 n7 top VSUBS C7
XC5_1 n5 top VSUBS C5
XC7_19 n7 top VSUBS C7
XC5_30 n5 top VSUBS C5
XC7_5 n7 top VSUBS C7
XC5_2 n5 top VSUBS C5
XC5_31 n5 top VSUBS C5
XC5_20 n5 top VSUBS C5
XC7_6 n7 top VSUBS C7
XC5_3 n5 top VSUBS C5
XC3_0 n3 top VSUBS C3
XC5_10 n5 top VSUBS C5
XC5_21 n5 top VSUBS C5
XC7_7 n7 top VSUBS C7
XC5_4 n5 top VSUBS C5
XC3_1 n3 top VSUBS C3
XC5_22 n5 top VSUBS C5
XC5_11 n5 top VSUBS C5
XC7_8 n7 top VSUBS C7
XC5_5 n5 top VSUBS C5
XC3_2 n3 top VSUBS C3
XC5_23 n5 top VSUBS C5
XC7_9 n7 top VSUBS C7
XC5_12 n5 top VSUBS C5
XC5_6 n5 top VSUBS C5
XC3_3 n3 top VSUBS C3
XC1_0 n1 top VSUBS C1
XC5_24 n5 top VSUBS C5
XC5_13 n5 top VSUBS C5
XC5_7 n5 top VSUBS C5
XC3_4 n3 top VSUBS C3
XC1_1 n1 top VSUBS C1
XC5_25 n5 top VSUBS C5
XC5_14 n5 top VSUBS C5
XC5_8 n5 top VSUBS C5
XC3_5 n3 top VSUBS C3
XC5_15 n5 top VSUBS C5
XC5_26 n5 top VSUBS C5
XC5_9 n5 top VSUBS C5
XC3_6 n3 top VSUBS C3
XC5_16 n5 top VSUBS C5
XC5_27 n5 top VSUBS C5
XC3_7 n3 top VSUBS C3
XC0_1_0 n0 top VSUBS C0_1
XC5_28 n5 top VSUBS C5
XC5_17 n5 top VSUBS C5
XC6_60 n6 top VSUBS C6
XC5_29 n5 top VSUBS C5
XC5_18 n5 top VSUBS C5
XC6_61 n6 top VSUBS C6
XC6_50 n6 top VSUBS C6
XC5_19 n5 top VSUBS C5
XC6_51 n6 top VSUBS C6
XC6_62 n6 top VSUBS C6
XC6_40 n6 top VSUBS C6
XC7_120 n7 top VSUBS C7
XC6_63 n6 top VSUBS C6
XC6_52 n6 top VSUBS C6
XC6_30 n6 top VSUBS C6
XC6_41 n6 top VSUBS C6
C0 m2_29800_1156# m3_29700_1156# 2.11f
C1 m2_25900_1156# n6 2.39f
C2 m2_20300_1156# n4 2.39f
C3 m3_12600_1156# m3_12800_1156# 3.35f
C4 m3_11500_1156# n6 4.08f
C5 m3_29700_1156# n7 2.16f
C6 m2_3400_1156# m3_3500_1156# 2.11f
C7 m3_41200_1156# n6 4.08f
C8 m3_3500_1156# m3_3700_1156# 3.35f
C9 n2 n3 19.4f
C10 m3_39900_1156# n7 4.08f
C11 m2_17700_1156# n6 2.39f
C12 m2_35000_1156# n7 3.52f
C13 m2_11200_1156# m3_11300_1156# 2.11f
C14 m2_25900_1156# m3_25800_1156# 2.11f
C15 m3_42500_1156# m3_42700_1156# 3.35f
C16 m2_40200_1156# m3_40100_1156# 2.11f
C17 m3_33400_1156# m3_33600_1156# 3.35f
C18 m2_31100_1156# m3_31000_1156# 2.11f
C19 m3_15400_1156# n5 4.08f
C20 m3_24300_1156# m3_24500_1156# 3.35f
C21 m3_13900_1156# m3_14100_1156# 3.35f
C22 n3 n4 10.8f
C23 m3_4800_1156# m3_5000_1156# 3.35f
C24 m3_12800_1156# n7 4.08f
C25 m2_800_1156# m3_900_1156# 2.11f
C26 m3_42500_1156# n7 4.08f
C27 m2_37600_1156# n7 2.39f
C28 m2_19000_1156# n7 2.42f
C29 m2_23300_1156# n4 2.39f
C30 m3_4800_1156# n7 2.16f
C31 m2_12500_1156# m3_12600_1156# 2.11f
C32 m3_28200_1156# n5 4.09f
C33 m2_27200_1156# m3_27100_1156# 2.11f
C34 m2_40200_1156# n6 2.39f
C35 m3_14100_1156# n7 4.08f
C36 m2_41500_1156# m3_41400_1156# 2.11f
C37 m2_8600_1156# m3_8700_1156# 2.11f
C38 m3_26900_1156# n6 4.08f
C39 m2_9900_1156# n7 2.39f
C40 m3_19300_1156# n4 4.08f
C41 m2_17700_1156# m3_17800_1156# 2.11f
C42 m3_34700_1156# m3_34900_1156# 3.35f
C43 n2 m3_23200_1156# 3.4f
C44 m2_38900_1156# n7 3.52f
C45 m2_32400_1156# m3_32300_1156# 2.11f
C46 m3_25600_1156# n7 4.08f
C47 m3_25600_1156# m3_25800_1156# 3.35f
C48 m3_15200_1156# m3_15400_1156# 3.35f
C49 m3_16700_1156# n6 3.14f
C50 m2_12500_1156# n6 2.39f
C51 m2_4700_1156# n7 3.52f
C52 m3_6100_1156# m3_6300_1156# 3.35f
C53 n4 n5 11.4f
C54 m2_23300_1156# m3_23200_1156# 2.11f
C55 m2_13800_1156# m3_13900_1156# 2.11f
C56 m2_42800_1156# m3_42700_1156# 2.11f
C57 m2_19000_1156# m3_19100_1156# 2.11f
C58 m3_36000_1156# m3_36200_1156# 3.35f
C59 ndum n0 13.4f
C60 m2_41500_1156# n7 2.39f
C61 m2_33700_1156# m3_33600_1156# 2.11f
C62 m2_6000_1156# m3_6100_1156# 2.11f
C63 m3_26900_1156# m3_27100_1156# 3.35f
C64 ndum n1 3.54f
C65 m2_16400_1156# n5 2.39f
C66 m3_8700_1156# n7 2.16f
C67 m3_16500_1156# m3_16700_1156# 3.35f
C68 m3_7400_1156# m3_7600_1156# 3.35f
C69 m3_18000_1156# n7 3.1f
C70 m2_13800_1156# n7 3.52f
C71 m3_29500_1156# n7 3.1f
C72 n2 n1 2.02f
C73 m2_24600_1156# m3_24500_1156# 2.11f
C74 m2_15100_1156# m3_15200_1156# 2.11f
C75 m3_38800_1156# n7 2.16f
C76 m3_33400_1156# n5 4.08f
C77 m3_2400_1156# n6 4.08f
C78 n5 n6 16.1f
C79 n3 n1 3.36f
C80 m2_15100_1156# n7 2.39f
C81 m3_32100_1156# n6 4.08f
C82 top n3 2.35f
C83 m2_20300_1156# m3_20400_1156# 2.11f
C84 m3_37300_1156# m3_37500_1156# 3.35f
C85 m3_1100_1156# n7 4.08f
C86 m2_35000_1156# m3_34900_1156# 2.11f
C87 m2_7300_1156# m3_7400_1156# 2.11f
C88 m3_30800_1156# n7 3.14f
C89 m3_28200_1156# m3_28400_1156# 3.35f
C90 m2_24600_1156# n7 2.39f
C91 m3_17800_1156# m3_18000_1156# 3.35f
C92 m2_3400_1156# n6 2.39f
C93 m3_8700_1156# m3_8900_1156# 3.35f
C94 m2_2100_1156# n7 2.39f
C95 top n4 4.11f
C96 m2_8600_1156# n7 3.52f
C97 m2_16400_1156# m3_16500_1156# 2.11f
C98 n2 m3_20400_1156# 3.43f
C99 m3_38600_1156# m3_38800_1156# 3.35f
C100 m3_3700_1156# n7 4.08f
C101 m2_36300_1156# m3_36200_1156# 2.11f
C102 m3_29500_1156# m3_29700_1156# 3.35f
C103 m2_28500_1156# n7 2.42f
C104 m3_13900_1156# n7 2.16f
C105 m3_19100_1156# m3_19300_1156# 3.35f
C106 n6 n7 20.9f
C107 top n5 8.2f
C108 m2_4700_1156# m3_4800_1156# 2.11f
C109 m2_32400_1156# n5 2.39f
C110 m3_10000_1156# m3_10200_1156# 3.35f
C111 m3_6300_1156# n6 4.08f
C112 m3_900_1156# m3_1100_1156# 3.35f
C113 m2_31100_1156# n6 2.39f
C114 m3_5000_1156# n7 4.08f
C115 m3_34700_1156# n7 4.08f
C116 m2_29800_1156# n7 3.52f
C117 top n6 16.4f
C118 m3_37300_1156# n6 4.09f
C119 m3_39900_1156# m3_40100_1156# 3.35f
C120 m2_37600_1156# m3_37500_1156# 2.11f
C121 m3_36000_1156# n7 4.08f
C122 m3_30800_1156# m3_31000_1156# 3.35f
C123 m2_28500_1156# m3_28400_1156# 2.11f
C124 m3_10200_1156# n5 4.08f
C125 m3_11300_1156# m3_11500_1156# 3.35f
C126 m2_2100_1156# m3_2200_1156# 2.11f
C127 m3_2200_1156# m3_2400_1156# 3.35f
C128 m3_7600_1156# n7 4.08f
C129 n7 n1 10.3f
C130 top n7 32.8f
C131 m2_7300_1156# n6 2.39f
C132 m2_6000_1156# n7 2.39f
C133 m3_24300_1156# n4 4.08f
C134 m2_9900_1156# m3_10000_1156# 2.11f
C135 m3_41200_1156# m3_41400_1156# 3.35f
C136 m3_8900_1156# n7 4.08f
C137 m2_38900_1156# m3_38800_1156# 2.11f
C138 n0 n1 13.4f
C139 m3_38600_1156# n7 4.08f
C140 m3_32100_1156# m3_32300_1156# 3.35f
C141 m2_33700_1156# n7 2.39f
C142 m2_27200_1156# n5 2.39f
C143 n1 VSUBS 3.76f
C144 n7 VSUBS 65.9f
C145 n6 VSUBS 31.9f
C146 n5 VSUBS 16.9f
C147 n4 VSUBS 8.19f
C148 n3 VSUBS 5.86f
C149 m2_42800_1156# VSUBS 2.03f **FLOATING
C150 m2_800_1156# VSUBS 2.03f **FLOATING
C151 n0 VSUBS 2.8f
C152 n2 VSUBS 7.31f
C153 top VSUBS 30.9f
C154 ndum VSUBS 6.68f
.ends

.subckt DAC enb en_buf ctl1 ctl0 dum ctl3 ctl4 ctl5 ctl6 ctl7 ctl2 sample out vin
+ vdd vss
Xinv2_0 vdd vdd ctl7 carray_0/n7 vss vss inv2
Xinv2_1 vdd vdd ctl6 carray_0/n6 vss vss inv2
Xinv2_2 vdd vdd dum carray_0/ndum vss vss inv2
Xinv2_3 vdd vdd ctl0 carray_0/n0 vss vss inv2
Xinv2_4 vdd vdd ctl1 carray_0/n1 vss vss inv2
Xinv2_5 vdd vdd ctl5 carray_0/n5 vss vss inv2
Xinv2_6 vdd vdd ctl4 carray_0/n4 vss vss inv2
Xinv2_7 vdd vdd ctl2 carray_0/n2 vss vss inv2
Xinv2_8 vdd vdd ctl3 carray_0/n3 vss vss inv2
Xsw_top_0 out sample sw_top_0/m2_1158_361# sw_top_0/m2_990_200# vdd vdd vin vss sw_top
Xcarray_0 carray_0/n5 carray_0/n7 carray_0/n6 carray_0/n2 carray_0/n3 carray_0/n4
+ carray_0/n1 carray_0/n0 carray_0/ndum out vss carray
Xsw_top_1 out sample enb en_buf vdd vdd vin vss sw_top
Xsw_top_2 out sample enb en_buf vdd vdd vin vss sw_top
Xsw_top_3 out sample sw_top_3/m2_1158_361# sw_top_3/m2_990_200# vdd vdd vin vss sw_top
C0 carray_0/ndum sample 11.1f
C1 sample carray_0/n7 4.96f
C2 en_buf vss 3.48f
C3 enb vss 3.16f
C4 carray_0/n1 vss 4.01f
C5 carray_0/n7 vss 65.5f
C6 carray_0/n6 vss 32.2f
C7 carray_0/n5 vss 17.2f
C8 carray_0/n4 vss 8.48f
C9 carray_0/n3 vss 6.16f
C10 carray_0/m2_42800_1156# vss 2.03f **FLOATING
C11 carray_0/m2_800_1156# vss 2.03f **FLOATING
C12 carray_0/n0 vss 3.04f
C13 carray_0/n2 vss 8.06f
C14 out vss 34.5f
C15 carray_0/ndum vss 6.61f
C16 sample vss 24.6f
C17 vin vss 6.35f
C18 vdd vss 34.9f
.ends

.subckt decap_3$1 a_65_55# a_65_331# w_0_269# VSUBS
X0 a_65_55# a_65_331# a_65_55# VSUBS sky130_fd_pr__nfet_01v8 ad=0.143 pd=1.62 as=0.286 ps=3.24 w=0.55 l=0.59
X1 a_65_331# a_65_55# a_65_331# w_0_269# sky130_fd_pr__pfet_01v8_hvt ad=0.226 pd=2.26 as=0.452 ps=4.52 w=0.87 l=0.59
.ends

.subckt M1_1 a_30_n109# a_n88_n109# a_n33_n197# VSUBS
X0 a_30_n109# a_n33_n197# a_n88_n109# VSUBS sky130_fd_pr__nfet_01v8_lvt ad=0.29 pd=2.58 as=0.29 ps=2.58 w=1 l=0.3
.ends

.subckt trim_sw d_0 d_1 d_2 d_3 d_4 m1_1462_409# m1_1771_409# m1_136_409# m1_799_409#
+ m1_1226_409# vss
XM1_1_14 vss m1_799_409# d_2 vss M1_1
XM1_1_15 m1_799_409# vss d_2 vss M1_1
XM1_1_0 vss m1_1226_409# d_0 vss M1_1
XM1_1_1 vss m1_1771_409# d_4 vss M1_1
XM1_1_2 m1_1771_409# vss d_4 vss M1_1
XM1_1_3 vss m1_1771_409# d_4 vss M1_1
XM1_1_4 m1_1771_409# vss d_4 vss M1_1
XM1_1_5 m1_1771_409# vss d_4 vss M1_1
XM1_1_6 vss m1_1771_409# d_4 vss M1_1
XM1_1_7 vss m1_1771_409# d_4 vss M1_1
XM1_1_8 m1_1771_409# vss d_4 vss M1_1
XM1_1_9 m1_1462_409# vss d_1 vss M1_1
XM1_1_10 m1_136_409# vss d_3 vss M1_1
XM1_1_11 vss m1_136_409# d_3 vss M1_1
XM1_1_12 m1_136_409# vss d_3 vss M1_1
XM1_1_13 vss m1_136_409# d_3 vss M1_1
.ends

.subckt trim n3 n4 n2 n1 n0 trim_sw_0/d_4 trim_sw_0/d_3 trim_sw_0/d_2 trim_sw_0/d_1
+ trim_sw_0/d_0 VSUBS drain
Xtrim_sw_0 trim_sw_0/d_0 trim_sw_0/d_1 trim_sw_0/d_2 trim_sw_0/d_3 trim_sw_0/d_4 n1
+ n4 n3 n2 n0 VSUBS trim_sw
C0 drain n3 3.41f
C1 n4 drain 6.84f
C2 drain 0 -4.84f
.ends

.subckt Mdiff a_n33_51# a_30_n171# a_n88_n171# VSUBS
X0 a_30_n171# a_n33_51# a_n88_n171# VSUBS sky130_fd_pr__nfet_01v8 ad=0.29 pd=2.58 as=0.29 ps=2.58 w=1 l=0.3
.ends

.subckt M3 a_n88_n176# a_n33_55# w_n124_n238# a_30_n176# VSUBS
X0 a_30_n176# a_n33_55# a_n88_n176# w_n124_n238# sky130_fd_pr__pfet_01v8 ad=0.29 pd=2.58 as=0.29 ps=2.58 w=1 l=0.3
.ends

.subckt Ml1 a_n33_51# a_30_n171# a_n88_n171# VSUBS
X0 a_30_n171# a_n33_51# a_n88_n171# VSUBS sky130_fd_pr__nfet_01v8 ad=0.29 pd=2.58 as=0.29 ps=2.58 w=1 l=0.3
.ends

.subckt Minp a_n33_51# a_30_n171# a_n88_n171# VSUBS
X0 a_30_n171# a_n33_51# a_n88_n171# VSUBS sky130_fd_pr__nfet_01v8 ad=0.29 pd=2.58 as=0.29 ps=2.58 w=1 l=0.3
.ends

.subckt M1 a_n88_n176# a_n33_55# w_n124_n238# a_30_n176# VSUBS
X0 a_30_n176# a_n33_55# a_n88_n176# w_n124_n238# sky130_fd_pr__pfet_01v8 ad=0.29 pd=2.58 as=0.29 ps=2.58 w=1 l=0.3
.ends

.subckt Minn a_n33_51# a_30_n171# a_n88_n171# VSUBS
X0 a_30_n171# a_n33_51# a_n88_n171# VSUBS sky130_fd_pr__nfet_01v8 ad=0.29 pd=2.58 as=0.29 ps=2.58 w=1 l=0.3
.ends

.subckt Ml4 a_n88_n176# a_n33_55# w_n124_n238# a_30_n176# VSUBS
X0 a_30_n176# a_n33_55# a_n88_n176# w_n124_n238# sky130_fd_pr__pfet_01v8 ad=0.29 pd=2.58 as=0.29 ps=2.58 w=1 l=0.3
.ends

.subckt M4 a_n88_n176# a_n33_55# w_n124_n238# a_30_n176# VSUBS
X0 a_30_n176# a_n33_55# a_n88_n176# w_n124_n238# sky130_fd_pr__pfet_01v8 ad=0.29 pd=2.58 as=0.29 ps=2.58 w=1 l=0.3
.ends

.subckt Ml2 a_n33_51# a_30_n171# a_n88_n171# VSUBS
X0 a_30_n171# a_n33_51# a_n88_n171# VSUBS sky130_fd_pr__nfet_01v8 ad=0.29 pd=2.58 as=0.29 ps=2.58 w=1 l=0.3
.ends

.subckt M2 a_n88_n176# a_n33_55# w_n124_n238# a_30_n176# VSUBS
X0 a_30_n176# a_n33_55# a_n88_n176# w_n124_n238# sky130_fd_pr__pfet_01v8 ad=0.29 pd=2.58 as=0.29 ps=2.58 w=1 l=0.3
.ends

.subckt Ml3 a_n88_n176# a_n33_55# w_n124_n238# a_30_n176# VSUBS
X0 a_30_n176# a_n33_55# a_n88_n176# w_n124_n238# sky130_fd_pr__pfet_01v8 ad=0.29 pd=2.58 as=0.29 ps=2.58 w=1 l=0.3
.ends

.subckt comparator_core vdd outp outn clk ip in diff vp vn vss
XMdiff_0 clk vss diff vss Mdiff
XMdiff_1 clk diff vss vss Mdiff
XM3_0 outp clk w_302_2337# vdd vss M3
XMl1_0 outp outn in vss Ml1
XMinp_0 vp ip diff vss Minp
XM1_0 in clk w_302_2337# vdd vss M1
XMinn_0 vn diff in vss Minn
XMl4_0 vdd outn w_302_2337# outp vss Ml4
XM4_0 vdd clk w_302_2337# ip vss M4
XMl2_0 outn ip outp vss Ml2
XM2_0 vdd clk w_302_2337# outn vss M2
XMl3_0 outn outp w_302_2337# vdd vss Ml3
C0 clk vss 3.13f
C1 vdd vss 2.09f
C2 w_302_2337# vss 4.58f
.ends

.subckt comparator trim_3 trim_2 trim_0 trim_1 trim_4 trimb_4 trimb_1 trimb_0 trimb_2
+ trimb_3 outn outp clk vdd vp vn vss
Xtrim_0 trim_0/n3 trim_0/n4 trim_0/n2 trim_0/n1 trim_0/n0 trim_4 trim_3 trim_2 trim_1
+ trim_0 vss trim_0/drain trim
Xtrim_1 trim_1/n3 trim_1/n4 trim_1/n2 trim_1/n1 trim_1/n0 trimb_4 trimb_3 trimb_2
+ trimb_1 trimb_0 vss trim_1/drain trim
Xcomparator_core_0 vdd outp outn clk trim_1/drain trim_0/drain comparator_core_0/diff
+ vp vn vss comparator_core
C0 trim_1/n3 trim_1/drain 3.41f
C1 vss vdd 5.14f
C2 trim_0/n3 trim_0/drain 3.41f
C3 trim_0/n4 trim_0/drain 6.86f
C4 trim_1/drain trim_1/n4 6.86f
C5 clk 0 3.16f
C6 vdd 0 6.8f
C7 comparator_core_0/w_302_2337# 0 4.58f
C8 trim_1/drain 0 -3.83f
C9 trim_0/drain 0 -3.86f
C10 vss 0 5.55f
.ends

.subckt sky130_fd_sc_hd__decap_4 VGND VPWR VPB VNB
X0 VGND VPWR VGND VNB sky130_fd_pr__nfet_01v8 ad=0.143 pd=1.62 as=0.286 ps=3.24 w=0.55 l=1.05
X1 VPWR VGND VPWR VPB sky130_fd_pr__pfet_01v8_hvt ad=0.226 pd=2.26 as=0.452 ps=4.52 w=0.87 l=1.05
.ends

.subckt sky130_fd_sc_hd__decap_8 VPWR VGND VPB VNB
X0 VGND VPWR VGND VNB sky130_fd_pr__nfet_01v8 ad=0.143 pd=1.62 as=0.286 ps=3.24 w=0.55 l=2.89
X1 VPWR VGND VPWR VPB sky130_fd_pr__pfet_01v8_hvt ad=0.226 pd=2.26 as=0.452 ps=4.52 w=0.87 l=2.89
.ends

.subckt sky130_fd_sc_hd__inv_2 VPWR VGND VPB VNB Y A
X0 VPWR A Y VPB sky130_fd_pr__pfet_01v8_hvt ad=0.26 pd=2.52 as=0.135 ps=1.27 w=1 l=0.15
X1 Y A VGND VNB sky130_fd_pr__nfet_01v8 ad=0.0878 pd=0.92 as=0.169 ps=1.82 w=0.65 l=0.15
X2 Y A VPWR VPB sky130_fd_pr__pfet_01v8_hvt ad=0.135 pd=1.27 as=0.26 ps=2.52 w=1 l=0.15