* NGSPICE file created from comparator.ext - technology: sky130B

.subckt M1_1 a_30_n109# a_n88_n109# a_n33_n197# VSUBS
X0 a_30_n109# a_n33_n197# a_n88_n109# VSUBS sky130_fd_pr__nfet_01v8_lvt ad=0.29 pd=2.58 as=0.29 ps=2.58 w=1 l=0.3
C0 a_n88_n109# a_n33_n197# 0.0116f
C1 a_30_n109# a_n33_n197# 0.0116f
C2 a_n88_n109# a_30_n109# 0.121f
C3 a_30_n109# VSUBS 0.121f
C4 a_n88_n109# VSUBS 0.121f
C5 a_n33_n197# VSUBS 0.227f
.ends

.subckt trim_sw d_0 d_1 d_2 d_3 d_4 m1_1462_409# m1_1771_409# m1_799_409# m1_1226_409#
+ m1_136_409# vss
XM1_1_14 vss m1_799_409# d_2 vss M1_1
XM1_1_15 m1_799_409# vss d_2 vss M1_1
XM1_1_0 vss m1_1226_409# d_0 vss M1_1
XM1_1_1 vss m1_1771_409# d_4 vss M1_1
XM1_1_2 m1_1771_409# vss d_4 vss M1_1
XM1_1_3 vss m1_1771_409# d_4 vss M1_1
XM1_1_4 m1_1771_409# vss d_4 vss M1_1
XM1_1_5 m1_1771_409# vss d_4 vss M1_1
XM1_1_6 vss m1_1771_409# d_4 vss M1_1
XM1_1_7 vss m1_1771_409# d_4 vss M1_1
XM1_1_8 m1_1771_409# vss d_4 vss M1_1
XM1_1_9 m1_1462_409# vss d_1 vss M1_1
XM1_1_10 m1_136_409# vss d_3 vss M1_1
XM1_1_11 vss m1_136_409# d_3 vss M1_1
XM1_1_12 m1_136_409# vss d_3 vss M1_1
XM1_1_13 vss m1_136_409# d_3 vss M1_1
C0 d_0 m1_1226_409# 0.0315f
C1 d_0 vss 0.0759f
C2 d_0 m1_799_409# 1.67e-19
C3 m1_1462_409# m1_1226_409# 0.0249f
C4 m1_1462_409# vss 0.259f
C5 d_1 vss 0.0796f
C6 vss m1_1771_409# 0.926f
C7 d_3 vss 0.262f
C8 m1_799_409# d_3 1.67e-19
C9 d_0 d_2 0.0764f
C10 m1_1462_409# d_4 1.67e-19
C11 d_1 d_4 0.0454f
C12 d_4 m1_1771_409# 0.165f
C13 m1_136_409# d_3 0.067f
C14 d_3 d_2 0.0446f
C15 m1_1226_409# vss 0.133f
C16 m1_799_409# m1_1226_409# 0.153f
C17 m1_799_409# vss 0.297f
C18 d_0 d_1 0.113f
C19 m1_136_409# vss 0.662f
C20 m1_799_409# m1_136_409# 0.153f
C21 d_4 vss 0.446f
C22 d_1 m1_1462_409# 0.0315f
C23 m1_1226_409# d_2 1.67e-19
C24 vss d_2 0.146f
C25 m1_799_409# d_2 0.0168f
C26 m1_1462_409# m1_1771_409# 0.0191f
C27 m1_136_409# d_2 1.67e-19
C28 d_2 0 0.362f
C29 m1_136_409# 0 0.38f
C30 vss 0 1f
C31 d_3 0 0.702f
C32 m1_1462_409# 0 0.0797f
C33 d_1 0 0.239f
C34 m1_1771_409# 0 0.401f
C35 d_4 0 1.29f
C36 m1_1226_409# 0 0.0757f
C37 d_0 0 0.227f
C38 m1_799_409# 0 0.219f
.ends

.subckt trim n1 n0 trim_sw_0/d_4 trim_sw_0/d_3 trim_sw_0/d_2 trim_sw_0/d_1 trim_sw_0/d_0
+ n2 n4 VSUBS drain n3
Xtrim_sw_0 trim_sw_0/d_0 trim_sw_0/d_1 trim_sw_0/d_2 trim_sw_0/d_3 trim_sw_0/d_4 n1
+ n4 n2 n0 n3 VSUBS trim_sw
C0 drain n2 1.7f
C1 trim_sw_0/d_0 n3 4.93e-20
C2 n3 trim_sw_0/d_4 4.9e-19
C3 n4 trim_sw_0/d_3 6.08e-20
C4 n0 n3 0.077f
C5 n4 n3 1.35f
C6 n0 trim_sw_0/d_0 0.0074f
C7 trim_sw_0/d_1 n1 0.0074f
C8 VSUBS n2 0.0679f
C9 n4 trim_sw_0/d_0 2.85e-20
C10 n4 trim_sw_0/d_4 5.87e-19
C11 VSUBS drain 1.76f
C12 n0 n4 0.138f
C13 n1 n2 0.0775f
C14 drain n1 0.851f
C15 trim_sw_0/d_2 n2 6e-19
C16 n3 trim_sw_0/d_1 4.93e-20
C17 trim_sw_0/d_2 drain 2.61e-20
C18 VSUBS n1 0.0284f
C19 trim_sw_0/d_3 drain 1.1e-19
C20 n4 trim_sw_0/d_1 2.85e-20
C21 n3 n2 0.517f
C22 n3 drain 3.41f
C23 trim_sw_0/d_0 n2 0.00217f
C24 trim_sw_0/d_4 n2 0.00497f
C25 n0 n2 0.0935f
C26 VSUBS trim_sw_0/d_3 6.59e-20
C27 drain trim_sw_0/d_4 2.61e-20
C28 n0 drain 0.851f
C29 n4 n2 0.551f
C30 VSUBS n3 0.112f
C31 n4 drain 6.84f
C32 VSUBS trim_sw_0/d_4 1.43e-19
C33 n0 VSUBS 0.0281f
C34 n4 VSUBS 0.192f
C35 n3 n1 0.0769f
C36 trim_sw_0/d_2 n3 9.86e-20
C37 trim_sw_0/d_1 n2 0.00217f
C38 n0 n1 0.482f
C39 n4 n1 0.145f
C40 n3 trim_sw_0/d_3 2.03e-19
C41 trim_sw_0/d_2 n4 1.61e-19
C42 n1 0 0.237f
C43 n0 0 0.224f
C44 drain 0 -4.84f
C45 trim_sw_0/d_2 0 0.362f
C46 n3 0 1.39f
C47 VSUBS 0 1.65f
C48 trim_sw_0/d_3 0 0.702f
C49 trim_sw_0/d_1 0 0.239f
C50 n4 0 1.98f
C51 trim_sw_0/d_4 0 1.29f
C52 trim_sw_0/d_0 0 0.227f
C53 n2 0 0.746f
.ends

.subckt Mdiff a_n33_51# a_30_n171# a_n88_n171# VSUBS
X0 a_30_n171# a_n33_51# a_n88_n171# VSUBS sky130_fd_pr__nfet_01v8 ad=0.29 pd=2.58 as=0.29 ps=2.58 w=1 l=0.3
C0 a_30_n171# a_n88_n171# 0.121f
C1 a_n33_51# a_n88_n171# 0.0116f
C2 a_n33_51# a_30_n171# 0.0116f
C3 a_30_n171# VSUBS 0.121f
C4 a_n88_n171# VSUBS 0.121f
C5 a_n33_51# VSUBS 0.227f
.ends

.subckt M3 a_n88_n176# a_n33_55# w_n124_n238# a_30_n176# VSUBS
X0 a_30_n176# a_n33_55# a_n88_n176# w_n124_n238# sky130_fd_pr__pfet_01v8 ad=0.29 pd=2.58 as=0.29 ps=2.58 w=1 l=0.3
C0 a_n88_n176# a_n33_55# 0.0116f
C1 a_30_n176# w_n124_n238# 0.00827f
C2 a_30_n176# a_n33_55# 0.0116f
C3 w_n124_n238# a_n33_55# 0.0663f
C4 a_30_n176# a_n88_n176# 0.121f
C5 w_n124_n238# a_n88_n176# 0.00827f
C6 a_30_n176# VSUBS 0.113f
C7 a_n88_n176# VSUBS 0.113f
C8 a_n33_55# VSUBS 0.167f
C9 w_n124_n238# VSUBS 0.269f
.ends

.subckt Ml1 a_n33_51# a_30_n171# a_n88_n171# VSUBS
X0 a_30_n171# a_n33_51# a_n88_n171# VSUBS sky130_fd_pr__nfet_01v8 ad=0.29 pd=2.58 as=0.29 ps=2.58 w=1 l=0.3
C0 a_30_n171# a_n88_n171# 0.121f
C1 a_n33_51# a_n88_n171# 0.0116f
C2 a_n33_51# a_30_n171# 0.0116f
C3 a_30_n171# VSUBS 0.121f
C4 a_n88_n171# VSUBS 0.121f
C5 a_n33_51# VSUBS 0.227f
.ends

.subckt Minp a_n33_51# a_30_n171# a_n88_n171# VSUBS
X0 a_30_n171# a_n33_51# a_n88_n171# VSUBS sky130_fd_pr__nfet_01v8 ad=0.29 pd=2.58 as=0.29 ps=2.58 w=1 l=0.3
C0 a_30_n171# a_n88_n171# 0.121f
C1 a_n33_51# a_n88_n171# 0.0116f
C2 a_n33_51# a_30_n171# 0.0116f
C3 a_30_n171# VSUBS 0.121f
C4 a_n88_n171# VSUBS 0.121f
C5 a_n33_51# VSUBS 0.227f
.ends

.subckt M1 a_n88_n176# a_n33_55# w_n124_n238# a_30_n176# VSUBS
X0 a_30_n176# a_n33_55# a_n88_n176# w_n124_n238# sky130_fd_pr__pfet_01v8 ad=0.29 pd=2.58 as=0.29 ps=2.58 w=1 l=0.3
C0 a_n88_n176# a_n33_55# 0.0116f
C1 a_30_n176# w_n124_n238# 0.00827f
C2 a_30_n176# a_n33_55# 0.0116f
C3 w_n124_n238# a_n33_55# 0.0663f
C4 a_30_n176# a_n88_n176# 0.121f
C5 w_n124_n238# a_n88_n176# 0.00827f
C6 a_30_n176# VSUBS 0.113f
C7 a_n88_n176# VSUBS 0.113f
C8 a_n33_55# VSUBS 0.167f
C9 w_n124_n238# VSUBS 0.269f
.ends

.subckt Minn a_n33_51# a_30_n171# a_n88_n171# VSUBS
X0 a_30_n171# a_n33_51# a_n88_n171# VSUBS sky130_fd_pr__nfet_01v8 ad=0.29 pd=2.58 as=0.29 ps=2.58 w=1 l=0.3
C0 a_30_n171# a_n88_n171# 0.121f
C1 a_n33_51# a_n88_n171# 0.0116f
C2 a_n33_51# a_30_n171# 0.0116f
C3 a_30_n171# VSUBS 0.121f
C4 a_n88_n171# VSUBS 0.121f
C5 a_n33_51# VSUBS 0.227f
.ends

.subckt Ml4 a_n88_n176# a_n33_55# w_n124_n238# a_30_n176# VSUBS
X0 a_30_n176# a_n33_55# a_n88_n176# w_n124_n238# sky130_fd_pr__pfet_01v8 ad=0.29 pd=2.58 as=0.29 ps=2.58 w=1 l=0.3
C0 a_n88_n176# a_n33_55# 0.0116f
C1 a_30_n176# w_n124_n238# 0.00827f
C2 a_30_n176# a_n33_55# 0.0116f
C3 w_n124_n238# a_n33_55# 0.0663f
C4 a_30_n176# a_n88_n176# 0.121f
C5 w_n124_n238# a_n88_n176# 0.00827f
C6 a_30_n176# VSUBS 0.113f
C7 a_n88_n176# VSUBS 0.113f
C8 a_n33_55# VSUBS 0.167f
C9 w_n124_n238# VSUBS 0.269f
.ends

.subckt M4 a_n88_n176# a_n33_55# w_n124_n238# a_30_n176# VSUBS
X0 a_30_n176# a_n33_55# a_n88_n176# w_n124_n238# sky130_fd_pr__pfet_01v8 ad=0.29 pd=2.58 as=0.29 ps=2.58 w=1 l=0.3
C0 a_n88_n176# a_n33_55# 0.0116f
C1 a_30_n176# w_n124_n238# 0.00827f
C2 a_30_n176# a_n33_55# 0.0116f
C3 w_n124_n238# a_n33_55# 0.0663f
C4 a_30_n176# a_n88_n176# 0.121f
C5 w_n124_n238# a_n88_n176# 0.00827f
C6 a_30_n176# VSUBS 0.113f
C7 a_n88_n176# VSUBS 0.113f
C8 a_n33_55# VSUBS 0.167f
C9 w_n124_n238# VSUBS 0.269f
.ends

.subckt Ml2 a_n33_51# a_30_n171# a_n88_n171# VSUBS
X0 a_30_n171# a_n33_51# a_n88_n171# VSUBS sky130_fd_pr__nfet_01v8 ad=0.29 pd=2.58 as=0.29 ps=2.58 w=1 l=0.3
C0 a_30_n171# a_n88_n171# 0.121f
C1 a_n33_51# a_n88_n171# 0.0116f
C2 a_n33_51# a_30_n171# 0.0116f
C3 a_30_n171# VSUBS 0.121f
C4 a_n88_n171# VSUBS 0.121f
C5 a_n33_51# VSUBS 0.227f
.ends

.subckt M2 a_n88_n176# a_n33_55# w_n124_n238# a_30_n176# VSUBS
X0 a_30_n176# a_n33_55# a_n88_n176# w_n124_n238# sky130_fd_pr__pfet_01v8 ad=0.29 pd=2.58 as=0.29 ps=2.58 w=1 l=0.3
C0 a_n88_n176# a_n33_55# 0.0116f
C1 a_30_n176# w_n124_n238# 0.00827f
C2 a_30_n176# a_n33_55# 0.0116f
C3 w_n124_n238# a_n33_55# 0.0663f
C4 a_30_n176# a_n88_n176# 0.121f
C5 w_n124_n238# a_n88_n176# 0.00827f
C6 a_30_n176# VSUBS 0.113f
C7 a_n88_n176# VSUBS 0.113f
C8 a_n33_55# VSUBS 0.167f
C9 w_n124_n238# VSUBS 0.269f
.ends

.subckt Ml3 a_n88_n176# a_n33_55# w_n124_n238# a_30_n176# VSUBS
X0 a_30_n176# a_n33_55# a_n88_n176# w_n124_n238# sky130_fd_pr__pfet_01v8 ad=0.29 pd=2.58 as=0.29 ps=2.58 w=1 l=0.3
C0 a_n88_n176# a_n33_55# 0.0116f
C1 a_30_n176# w_n124_n238# 0.00827f
C2 a_30_n176# a_n33_55# 0.0116f
C3 w_n124_n238# a_n33_55# 0.0663f
C4 a_30_n176# a_n88_n176# 0.121f
C5 w_n124_n238# a_n88_n176# 0.00827f
C6 a_30_n176# VSUBS 0.113f
C7 a_n88_n176# VSUBS 0.113f
C8 a_n33_55# VSUBS 0.167f
C9 w_n124_n238# VSUBS 0.269f
.ends

.subckt comparator_core outn clk ip in diff outp w_302_2337# vdd vn vp vss
XMdiff_0 clk vss diff vss Mdiff
XMdiff_1 clk diff vss vss Mdiff
XM3_0 outp clk w_302_2337# vdd vss M3
XMl1_0 outp outn in vss Ml1
XMinp_0 vp ip diff vss Minp
XM1_0 in clk w_302_2337# vdd vss M1
XMinn_0 vn diff in vss Minn
XMl4_0 vdd outn w_302_2337# outp vss Ml4
XM4_0 vdd clk w_302_2337# ip vss M4
XMl2_0 outn ip outp vss Ml2
XM2_0 vdd clk w_302_2337# outn vss M2
XMl3_0 outn outp w_302_2337# vdd vss Ml3
C0 in w_302_2337# 0.0589f
C1 vdd w_302_2337# 1.17f
C2 outn vp 0.178f
C3 vdd ip 0.11f
C4 ip diff 0.0808f
C5 vn vp 0.202f
C6 clk vp 0.0951f
C7 w_302_2337# ip 0.0584f
C8 in outn 0.0617f
C9 outn vdd 0.211f
C10 outn diff 0.00221f
C11 in vn 0.0722f
C12 in clk 0.436f
C13 outn w_302_2337# 0.304f
C14 outp vp 0.236f
C15 vn vdd 0.0761f
C16 vdd clk 0.276f
C17 vn diff 0.00126f
C18 clk diff 0.0314f
C19 vn w_302_2337# 0.0775f
C20 clk w_302_2337# 0.222f
C21 outn ip 0.0133f
C22 in outp 0.0133f
C23 clk ip 0.436f
C24 vdd outp 0.204f
C25 outp diff 0.00669f
C26 outp w_302_2337# 0.291f
C27 outn vn 0.167f
C28 outn clk 0.215f
C29 outp ip 0.0618f
C30 vn clk 0.0937f
C31 vdd vp 0.0755f
C32 diff vp 0.00126f
C33 w_302_2337# vp 0.0765f
C34 outn outp 1.02f
C35 in vdd 0.111f
C36 vn outp 0.223f
C37 clk outp 0.21f
C38 ip vp 0.0723f
C39 in diff 0.0808f
C40 clk vss 3.13f
C41 vdd vss 2.09f
C42 outn vss 1.77f
C43 w_302_2337# vss 4.58f
C44 vn vss 1.7f
C45 ip vss 1.16f
C46 vp vss 1.69f
C47 in vss 1.16f
C48 outp vss 1.76f
C49 diff vss 0.226f
.ends

.subckt comparator trim_3 trim_2 trim_0 trim_1 trim_4 trimb_4 trimb_1 trimb_0 trimb_2
+ trimb_3 outn outp clk vdd vss vn vp
Xtrim_0 trim_0/n1 trim_0/n0 trim_4 trim_3 trim_2 trim_1 trim_0 trim_0/n2 trim_0/n4
+ vss trim_0/drain trim_0/n3 trim
Xtrim_1 trim_1/n1 trim_1/n0 trimb_4 trimb_3 trimb_2 trimb_1 trimb_0 trim_1/n2 trim_1/n4
+ vss trim_1/drain trim_1/n3 trim
Xcomparator_core_0 outn clk trim_1/drain trim_0/drain comparator_core_0/diff outp
+ comparator_core_0/w_302_2337# vdd vn vp vss comparator_core
X0 trim_0/n4 trim_4.t7 vss vss sky130_fd_pr__nfet_01v8_lvt ad=0.29 pd=2.58 as=0.29 ps=2.58 w=0 l=0
X1 trim_0/n3 trim_3.t2 vss vss sky130_fd_pr__nfet_01v8_lvt ad=0.29 pd=2.58 as=0.29 ps=2.58 w=0 l=0
X2 vss trimb_3.t3 trim_1/n3 vss sky130_fd_pr__nfet_01v8_lvt ad=0.29 pd=2.58 as=0.29 ps=2.58 w=0 l=0
X3 trim_1/n3 trimb_3.t2 vss vss sky130_fd_pr__nfet_01v8_lvt ad=0.29 pd=2.58 as=0.29 ps=2.58 w=0 l=0
X4 trim_0/n4 trim_4.t4 vss vss sky130_fd_pr__nfet_01v8_lvt ad=0.29 pd=2.58 as=0.29 ps=2.58 w=0 l=0
X5 trim_1/n4 trimb_4.t4 vss vss sky130_fd_pr__nfet_01v8_lvt ad=0.29 pd=2.58 as=0.29 ps=2.58 w=0 l=0
X6 trim_0/n4 trim_4.t1 vss vss sky130_fd_pr__nfet_01v8_lvt ad=0.29 pd=2.58 as=0.29 ps=2.58 w=0 l=0
X7 vss trim_3.t1 trim_0/n3 vss sky130_fd_pr__nfet_01v8_lvt ad=0.29 pd=2.58 as=0.29 ps=2.58 w=0 l=0
X8 trim_1/n4 trimb_4.t1 vss vss sky130_fd_pr__nfet_01v8_lvt ad=0.29 pd=2.58 as=0.29 ps=2.58 w=0 l=0
X9 vss trimb_3.t1 trim_1/n3 vss sky130_fd_pr__nfet_01v8_lvt ad=0.29 pd=2.58 as=0.29 ps=2.58 w=0 l=0
X10 trim_0/n2 trim_2.t1 vss vss sky130_fd_pr__nfet_01v8_lvt ad=0.29 pd=2.58 as=0.29 ps=2.58 w=0 l=0
X11 trim_1/drain vp.t0 comparator_core_0/diff vss sky130_fd_pr__nfet_01v8 ad=0.29 pd=2.58 as=0.29 ps=2.58 w=0 l=0
X12 comparator_core_0/diff vn.t0 trim_0/drain vss sky130_fd_pr__nfet_01v8 ad=0.29 pd=2.58 as=0.29 ps=2.58 w=0 l=0
X13 vss trim_4.t6 trim_0/n4 vss sky130_fd_pr__nfet_01v8_lvt ad=0.29 pd=2.58 as=0.29 ps=2.58 w=0 l=0
X14 trim_1/n2 trimb_2.t1 vss vss sky130_fd_pr__nfet_01v8_lvt ad=0.29 pd=2.58 as=0.29 ps=2.58 w=0 l=0
X15 vss trimb_4.t6 trim_1/n4 vss sky130_fd_pr__nfet_01v8_lvt ad=0.29 pd=2.58 as=0.29 ps=2.58 w=0 l=0
X16 vss trimb_4.t5 trim_1/n4 vss sky130_fd_pr__nfet_01v8_lvt ad=0.29 pd=2.58 as=0.29 ps=2.58 w=0 l=0
X17 comparator_core_0/diff clk.t1 vss vss sky130_fd_pr__nfet_01v8 ad=0.29 pd=2.58 as=0.29 ps=2.58 w=0 l=0
X18 trim_1/drain clk.t4 vdd comparator_core_0/w_302_2337# sky130_fd_pr__pfet_01v8 ad=0.29 pd=2.58 as=0.29 ps=2.58 w=0 l=0
X19 vss trim_4.t5 trim_0/n4 vss sky130_fd_pr__nfet_01v8_lvt ad=0.29 pd=2.58 as=0.29 ps=2.58 w=0 l=0
X20 outp outn.t0 vdd comparator_core_0/w_302_2337# sky130_fd_pr__pfet_01v8 ad=0.29 pd=2.58 as=0.29 ps=2.58 w=0 l=0
X21 vdd outp.t1 outn comparator_core_0/w_302_2337# sky130_fd_pr__pfet_01v8 ad=0.29 pd=2.58 as=0.29 ps=2.58 w=0 l=0
X22 outn clk.t5 vdd comparator_core_0/w_302_2337# sky130_fd_pr__pfet_01v8 ad=0.29 pd=2.58 as=0.29 ps=2.58 w=0 l=0
X23 trim_0/n3 trim_3.t0 vss vss sky130_fd_pr__nfet_01v8_lvt ad=0.29 pd=2.58 as=0.29 ps=2.58 w=0 l=0
X24 outn outp.t0 trim_0/drain vss sky130_fd_pr__nfet_01v8 ad=0.29 pd=2.58 as=0.29 ps=2.58 w=0 l=0
X25 trim_1/n3 trimb_3.t0 vss vss sky130_fd_pr__nfet_01v8_lvt ad=0.29 pd=2.58 as=0.29 ps=2.58 w=0 l=0
X26 trim_0/n1 trim_1.t0 vss vss sky130_fd_pr__nfet_01v8_lvt ad=0.29 pd=2.58 as=0.29 ps=2.58 w=0 l=0
X27 vss trim_2.t0 trim_0/n2 vss sky130_fd_pr__nfet_01v8_lvt ad=0.29 pd=2.58 as=0.29 ps=2.58 w=0 l=0
X28 trim_1/n1 trimb_1.t0 vss vss sky130_fd_pr__nfet_01v8_lvt ad=0.29 pd=2.58 as=0.29 ps=2.58 w=0 l=0
X29 trim_1/drain outn.t1 outp vss sky130_fd_pr__nfet_01v8 ad=0.29 pd=2.58 as=0.29 ps=2.58 w=0 l=0
X30 trim_0/n4 trim_4.t3 vss vss sky130_fd_pr__nfet_01v8_lvt ad=0.29 pd=2.58 as=0.29 ps=2.58 w=0 l=0
X31 vss trimb_2.t0 trim_1/n2 vss sky130_fd_pr__nfet_01v8_lvt ad=0.29 pd=2.58 as=0.29 ps=2.58 w=0 l=0
X32 trim_1/n4 trimb_4.t3 vss vss sky130_fd_pr__nfet_01v8_lvt ad=0.29 pd=2.58 as=0.29 ps=2.58 w=0 l=0
X33 vdd clk.t2 outp comparator_core_0/w_302_2337# sky130_fd_pr__pfet_01v8 ad=0.29 pd=2.58 as=0.29 ps=2.58 w=0 l=0
X34 vss trim_4.t2 trim_0/n4 vss sky130_fd_pr__nfet_01v8_lvt ad=0.29 pd=2.58 as=0.29 ps=2.58 w=0 l=0
X35 vss trimb_4.t2 trim_1/n4 vss sky130_fd_pr__nfet_01v8_lvt ad=0.29 pd=2.58 as=0.29 ps=2.58 w=0 l=0
X36 vdd clk.t3 trim_0/drain comparator_core_0/w_302_2337# sky130_fd_pr__pfet_01v8 ad=0.29 pd=2.58 as=0.29 ps=2.58 w=0 l=0
X37 vss trimb_4.t0 trim_1/n4 vss sky130_fd_pr__nfet_01v8_lvt ad=0.29 pd=2.58 as=0.29 ps=2.58 w=0 l=0
X38 vss clk.t0 comparator_core_0/diff vss sky130_fd_pr__nfet_01v8 ad=0.29 pd=2.58 as=0.29 ps=2.58 w=0 l=0
X39 vss trim_4.t0 trim_0/n4 vss sky130_fd_pr__nfet_01v8_lvt ad=0.29 pd=2.58 as=0.29 ps=2.58 w=0 l=0
X40 trim_1/n4 trimb_4.t7 vss vss sky130_fd_pr__nfet_01v8_lvt ad=0.29 pd=2.58 as=0.29 ps=2.58 w=0 l=0
X41 vss trim_0.t0 trim_0/n0 vss sky130_fd_pr__nfet_01v8_lvt ad=0.29 pd=2.58 as=0.29 ps=2.58 w=0 l=0
X42 vss trim_3.t3 trim_0/n3 vss sky130_fd_pr__nfet_01v8_lvt ad=0.29 pd=2.58 as=0.29 ps=2.58 w=0 l=0
X43 vss trimb_0.t0 trim_1/n0 vss sky130_fd_pr__nfet_01v8_lvt ad=0.29 pd=2.58 as=0.29 ps=2.58 w=0 l=0
R0 trim_2.n0 trim_2.t0 135.6
R1 trim_2.n0 trim_2.t1 135.6
R2 trim_2 trim_2 5.838
R3 trim_2 trim_2.n0 2.56687
R4 vss.n168 vss.n119 2916.35
R5 vss.n483 vss.n482 1084.91
R6 vss.n220 vss.n171 833.399
R7 vss.n109 vss.n108 292.5
R8 vss.n107 vss.n106 292.5
R9 vss.n105 vss.n104 292.5
R10 vss.n103 vss.n102 292.5
R11 vss.n101 vss.n100 292.5
R12 vss.n99 vss.n98 292.5
R13 vss.n97 vss.n96 292.5
R14 vss.n95 vss.n94 292.5
R15 vss.n93 vss.n92 292.5
R16 vss.n91 vss.n90 292.5
R17 vss.n89 vss.n88 292.5
R18 vss.n88 vss.n87 292.5
R19 vss.n86 vss.n85 292.5
R20 vss.n85 vss.n84 292.5
R21 vss.n83 vss.n82 292.5
R22 vss.n82 vss.n81 292.5
R23 vss.n80 vss.n79 292.5
R24 vss.n79 vss.n78 292.5
R25 vss.n77 vss.n76 292.5
R26 vss.n76 vss.n75 292.5
R27 vss.n74 vss.n73 292.5
R28 vss.n73 vss.n72 292.5
R29 vss.n71 vss.n70 292.5
R30 vss.n70 vss.n69 292.5
R31 vss.n68 vss.n67 292.5
R32 vss.n67 vss.n66 292.5
R33 vss.n511 vss.n510 292.5
R34 vss.n510 vss.n509 292.5
R35 vss.n514 vss.n513 292.5
R36 vss.n513 vss.n512 292.5
R37 vss.n517 vss.n516 292.5
R38 vss.n516 vss.n515 292.5
R39 vss.n520 vss.n519 292.5
R40 vss.n519 vss.n518 292.5
R41 vss.n523 vss.n522 292.5
R42 vss.n522 vss.n521 292.5
R43 vss.n526 vss.n525 292.5
R44 vss.n525 vss.n524 292.5
R45 vss.n529 vss.n528 292.5
R46 vss.n528 vss.n527 292.5
R47 vss.n531 vss.n530 292.5
R48 vss.n533 vss.n532 292.5
R49 vss.n535 vss.n534 292.5
R50 vss.n537 vss.n536 292.5
R51 vss.n539 vss.n538 292.5
R52 vss.n541 vss.n540 292.5
R53 vss.n543 vss.n542 292.5
R54 vss.n545 vss.n544 292.5
R55 vss.n547 vss.n546 292.5
R56 vss.n549 vss.n548 292.5
R57 vss.n379 vss.n378 292.5
R58 vss.n377 vss.n376 292.5
R59 vss.n375 vss.n374 292.5
R60 vss.n373 vss.n372 292.5
R61 vss.n371 vss.n370 292.5
R62 vss.n369 vss.n368 292.5
R63 vss.n367 vss.n366 292.5
R64 vss.n365 vss.n364 292.5
R65 vss.n363 vss.n362 292.5
R66 vss.n361 vss.n360 292.5
R67 vss.n359 vss.n358 292.5
R68 vss.n357 vss.n356 292.5
R69 vss.n355 vss.n354 292.5
R70 vss.n353 vss.n352 292.5
R71 vss.n351 vss.n350 292.5
R72 vss.n349 vss.n348 292.5
R73 vss.n347 vss.n346 292.5
R74 vss.n1 vss.n0 292.5
R75 vss.n3 vss.n2 292.5
R76 vss.n5 vss.n4 292.5
R77 vss.n7 vss.n6 292.5
R78 vss.n9 vss.n8 292.5
R79 vss.n11 vss.n10 292.5
R80 vss.n13 vss.n12 292.5
R81 vss.n15 vss.n14 292.5
R82 vss.n17 vss.n16 292.5
R83 vss.n19 vss.n18 292.5
R84 vss.n21 vss.n20 292.5
R85 vss.n23 vss.n22 292.5
R86 vss.n25 vss.n24 292.5
R87 vss.n27 vss.n26 292.5
R88 vss.n29 vss.n28 292.5
R89 vss.n31 vss.n30 292.5
R90 vss.n33 vss.n32 292.5
R91 vss.n472 vss.n471 292.5
R92 vss.n470 vss.n469 292.5
R93 vss.n428 vss.n427 292.5
R94 vss.n406 vss.n405 292.5
R95 vss.n399 vss.n398 292.5
R96 vss.n401 vss.n400 292.5
R97 vss.n419 vss.n418 292.5
R98 vss.n417 vss.n416 292.5
R99 vss.n438 vss.n437 292.5
R100 vss.n453 vss.n452 292.5
R101 vss.n391 vss.n390 292.5
R102 vss.n393 vss.n392 292.5
R103 vss.n463 vss.n462 292.5
R104 vss.n461 vss.n460 292.5
R105 vss.n459 vss.n458 292.5
R106 vss.n432 vss.n431 292.5
R107 vss.n434 vss.n433 292.5
R108 vss.n436 vss.n435 292.5
R109 vss.n335 vss.n334 292.5
R110 vss.n333 vss.n332 292.5
R111 vss.n331 vss.n330 292.5
R112 vss.n263 vss.n262 292.5
R113 vss.n243 vss.n242 292.5
R114 vss.n300 vss.n299 292.5
R115 vss.n302 vss.n301 292.5
R116 vss.n304 vss.n303 292.5
R117 vss.n306 vss.n305 292.5
R118 vss.n169 vss.n168 233.006
R119 vss.n494 vss.n493 222.222
R120 vss.n221 vss.n220 216.75
R121 vss.n54 vss.n53 204.445
R122 vss.n34 vss.n33 163.766
R123 vss.n243 vss.n241 163.766
R124 vss.n424 vss.n419 162.964
R125 vss.n496 vss.n495 157.778
R126 vss.n56 vss.n55 157.778
R127 vss.n407 vss.n406 155.482
R128 vss.n478 vss.n393 153.91
R129 vss.n402 vss.n401 150.213
R130 vss.n482 vss.n478 147.875
R131 vss.n424 vss.n423 147.875
R132 vss.n441 vss.n440 146.447
R133 vss.n456 vss.n455 144.189
R134 vss.n380 vss.n379 144.189
R135 vss.n306 vss.n304 144.189
R136 vss.n429 vss.n428 140.968
R137 vss.n473 vss.n472 135.697
R138 vss.n550 vss.n549 131.766
R139 vss.n336 vss.n335 131.766
R140 vss.n110 vss.n109 125.742
R141 vss.n264 vss.n263 125.742
R142 vss.n422 vss.n420 117.719
R143 vss.n481 vss.n479 117.719
R144 vss.n219 vss.n218 117.719
R145 vss.n219 vss.n217 117.719
R146 vss.n422 vss.n421 117.719
R147 vss.n481 vss.n480 117.719
R148 vss.n216 vss.n214 117.719
R149 vss.n213 vss.n211 117.719
R150 vss.n210 vss.n208 117.719
R151 vss.n207 vss.n205 117.719
R152 vss.n204 vss.n202 117.719
R153 vss.n201 vss.n199 117.719
R154 vss.n198 vss.n196 117.719
R155 vss.n195 vss.n193 117.719
R156 vss.n192 vss.n190 117.719
R157 vss.n189 vss.n187 117.719
R158 vss.n186 vss.n184 117.719
R159 vss.n183 vss.n181 117.719
R160 vss.n180 vss.n178 117.719
R161 vss.n177 vss.n175 117.719
R162 vss.n124 vss.n122 117.719
R163 vss.n127 vss.n125 117.719
R164 vss.n130 vss.n128 117.719
R165 vss.n133 vss.n131 117.719
R166 vss.n136 vss.n134 117.719
R167 vss.n139 vss.n137 117.719
R168 vss.n142 vss.n140 117.719
R169 vss.n145 vss.n143 117.719
R170 vss.n148 vss.n146 117.719
R171 vss.n151 vss.n149 117.719
R172 vss.n154 vss.n152 117.719
R173 vss.n157 vss.n155 117.719
R174 vss.n160 vss.n158 117.719
R175 vss.n163 vss.n161 117.719
R176 vss.n166 vss.n164 117.719
R177 vss.n166 vss.n165 117.719
R178 vss.n163 vss.n162 117.719
R179 vss.n160 vss.n159 117.719
R180 vss.n157 vss.n156 117.719
R181 vss.n154 vss.n153 117.719
R182 vss.n151 vss.n150 117.719
R183 vss.n148 vss.n147 117.719
R184 vss.n145 vss.n144 117.719
R185 vss.n142 vss.n141 117.719
R186 vss.n139 vss.n138 117.719
R187 vss.n136 vss.n135 117.719
R188 vss.n133 vss.n132 117.719
R189 vss.n130 vss.n129 117.719
R190 vss.n127 vss.n126 117.719
R191 vss.n124 vss.n123 117.719
R192 vss.n121 vss.n120 117.719
R193 vss.n216 vss.n215 117.719
R194 vss.n213 vss.n212 117.719
R195 vss.n210 vss.n209 117.719
R196 vss.n207 vss.n206 117.719
R197 vss.n204 vss.n203 117.719
R198 vss.n201 vss.n200 117.719
R199 vss.n198 vss.n197 117.719
R200 vss.n195 vss.n194 117.719
R201 vss.n192 vss.n191 117.719
R202 vss.n189 vss.n188 117.719
R203 vss.n186 vss.n185 117.719
R204 vss.n183 vss.n182 117.719
R205 vss.n180 vss.n179 117.719
R206 vss.n177 vss.n176 117.719
R207 vss.n174 vss.n173 117.719
R208 vss.n393 vss.n391 102.606
R209 vss.n419 vss.n417 102.606
R210 vss.n464 vss.n457 100.216
R211 vss.n443 vss.n442 100.216
R212 vss.n220 vss.n219 87.3927
R213 vss.n423 vss.n422 87.3927
R214 vss.n482 vss.n481 87.3927
R215 vss.n168 vss.n167 87.3925
R216 vss.n168 vss.n166 87.3925
R217 vss.n168 vss.n163 87.3925
R218 vss.n168 vss.n160 87.3925
R219 vss.n168 vss.n157 87.3925
R220 vss.n168 vss.n154 87.3925
R221 vss.n168 vss.n151 87.3925
R222 vss.n168 vss.n148 87.3925
R223 vss.n168 vss.n145 87.3925
R224 vss.n168 vss.n142 87.3925
R225 vss.n168 vss.n139 87.3925
R226 vss.n168 vss.n136 87.3925
R227 vss.n168 vss.n133 87.3925
R228 vss.n168 vss.n130 87.3925
R229 vss.n168 vss.n127 87.3925
R230 vss.n168 vss.n124 87.3925
R231 vss.n168 vss.n121 87.3925
R232 vss.n220 vss.n216 87.3925
R233 vss.n220 vss.n213 87.3925
R234 vss.n220 vss.n210 87.3925
R235 vss.n220 vss.n207 87.3925
R236 vss.n220 vss.n204 87.3925
R237 vss.n220 vss.n201 87.3925
R238 vss.n220 vss.n198 87.3925
R239 vss.n220 vss.n195 87.3925
R240 vss.n220 vss.n192 87.3925
R241 vss.n220 vss.n189 87.3925
R242 vss.n220 vss.n186 87.3925
R243 vss.n220 vss.n183 87.3925
R244 vss.n220 vss.n180 87.3925
R245 vss.n220 vss.n177 87.3925
R246 vss.n220 vss.n174 87.3925
R247 vss.n220 vss.n172 87.3925
R248 vss.n53 vss.n52 75.5561
R249 vss.n52 vss.n51 75.5561
R250 vss.n51 vss.n50 75.5561
R251 vss.n50 vss.n49 75.5561
R252 vss.n49 vss.n48 75.5561
R253 vss.n48 vss.n47 75.5561
R254 vss.n47 vss.n46 75.5561
R255 vss.n46 vss.n45 75.5561
R256 vss.n45 vss.n44 75.5561
R257 vss.n485 vss.n484 75.5561
R258 vss.n486 vss.n485 75.5561
R259 vss.n487 vss.n486 75.5561
R260 vss.n488 vss.n487 75.5561
R261 vss.n489 vss.n488 75.5561
R262 vss.n490 vss.n489 75.5561
R263 vss.n491 vss.n490 75.5561
R264 vss.n492 vss.n491 75.5561
R265 vss.n493 vss.n492 75.5561
R266 vss.n280 vss.n221 65.0251
R267 vss.n425 vss.n413 63.7358
R268 vss.n477 vss.n396 63.7358
R269 vss.n389 vss.n388 57.3393
R270 vss.n417 vss.n415 57.3393
R271 vss.n223 vss.n222 52.1476
R272 vss.n118 vss.n117 52.1476
R273 vss.n279 vss.n223 46.3534
R274 vss.n281 vss.n118 46.3534
R275 vss.n391 vss.n389 45.268
R276 vss.n388 vss.n387 45.268
R277 vss.n415 vss.n414 45.268
R278 vss.n500 vss.n499 40.5593
R279 vss.n57 vss.n43 40.5593
R280 vss.n443 vss.n436 30.5684
R281 vss.n464 vss.n463 28.3093
R282 vss.n498 vss.n497 27.6046
R283 vss.n42 vss.n41 27.6046
R284 vss.n499 vss.n498 27.6046
R285 vss.n43 vss.n42 27.6046
R286 vss.n457 vss.n456 25.6005
R287 vss.n455 vss.n454 25.6005
R288 vss.n454 vss.n453 25.6005
R289 vss.n439 vss.n438 25.6005
R290 vss.n440 vss.n439 25.6005
R291 vss.n442 vss.n441 25.6005
R292 vss.n463 vss.n461 25.6005
R293 vss.n461 vss.n459 25.6005
R294 vss.n434 vss.n432 25.6005
R295 vss.n436 vss.n434 25.6005
R296 vss.n472 vss.n470 25.6005
R297 vss.n401 vss.n399 25.6005
R298 vss.n109 vss.n107 25.6005
R299 vss.n107 vss.n105 25.6005
R300 vss.n105 vss.n103 25.6005
R301 vss.n103 vss.n101 25.6005
R302 vss.n101 vss.n99 25.6005
R303 vss.n99 vss.n97 25.6005
R304 vss.n97 vss.n95 25.6005
R305 vss.n95 vss.n93 25.6005
R306 vss.n93 vss.n91 25.6005
R307 vss.n91 vss.n89 25.6005
R308 vss.n89 vss.n86 25.6005
R309 vss.n86 vss.n83 25.6005
R310 vss.n83 vss.n80 25.6005
R311 vss.n80 vss.n77 25.6005
R312 vss.n77 vss.n74 25.6005
R313 vss.n74 vss.n71 25.6005
R314 vss.n71 vss.n68 25.6005
R315 vss.n514 vss.n511 25.6005
R316 vss.n517 vss.n514 25.6005
R317 vss.n520 vss.n517 25.6005
R318 vss.n523 vss.n520 25.6005
R319 vss.n526 vss.n523 25.6005
R320 vss.n529 vss.n526 25.6005
R321 vss.n531 vss.n529 25.6005
R322 vss.n533 vss.n531 25.6005
R323 vss.n535 vss.n533 25.6005
R324 vss.n537 vss.n535 25.6005
R325 vss.n539 vss.n537 25.6005
R326 vss.n541 vss.n539 25.6005
R327 vss.n543 vss.n541 25.6005
R328 vss.n545 vss.n543 25.6005
R329 vss.n547 vss.n545 25.6005
R330 vss.n549 vss.n547 25.6005
R331 vss.n33 vss.n31 25.6005
R332 vss.n31 vss.n29 25.6005
R333 vss.n29 vss.n27 25.6005
R334 vss.n27 vss.n25 25.6005
R335 vss.n25 vss.n23 25.6005
R336 vss.n23 vss.n21 25.6005
R337 vss.n21 vss.n19 25.6005
R338 vss.n19 vss.n17 25.6005
R339 vss.n17 vss.n15 25.6005
R340 vss.n15 vss.n13 25.6005
R341 vss.n13 vss.n11 25.6005
R342 vss.n11 vss.n9 25.6005
R343 vss.n9 vss.n7 25.6005
R344 vss.n7 vss.n5 25.6005
R345 vss.n5 vss.n3 25.6005
R346 vss.n3 vss.n1 25.6005
R347 vss.n349 vss.n347 25.6005
R348 vss.n351 vss.n349 25.6005
R349 vss.n353 vss.n351 25.6005
R350 vss.n355 vss.n353 25.6005
R351 vss.n357 vss.n355 25.6005
R352 vss.n359 vss.n357 25.6005
R353 vss.n361 vss.n359 25.6005
R354 vss.n363 vss.n361 25.6005
R355 vss.n365 vss.n363 25.6005
R356 vss.n367 vss.n365 25.6005
R357 vss.n369 vss.n367 25.6005
R358 vss.n371 vss.n369 25.6005
R359 vss.n373 vss.n371 25.6005
R360 vss.n375 vss.n373 25.6005
R361 vss.n377 vss.n375 25.6005
R362 vss.n379 vss.n377 25.6005
R363 vss.n263 vss.n261 25.6005
R364 vss.n261 vss.n260 25.6005
R365 vss.n260 vss.n259 25.6005
R366 vss.n259 vss.n258 25.6005
R367 vss.n258 vss.n257 25.6005
R368 vss.n257 vss.n256 25.6005
R369 vss.n256 vss.n255 25.6005
R370 vss.n255 vss.n254 25.6005
R371 vss.n254 vss.n253 25.6005
R372 vss.n253 vss.n252 25.6005
R373 vss.n252 vss.n251 25.6005
R374 vss.n251 vss.n250 25.6005
R375 vss.n250 vss.n249 25.6005
R376 vss.n249 vss.n248 25.6005
R377 vss.n248 vss.n247 25.6005
R378 vss.n247 vss.n246 25.6005
R379 vss.n316 vss.n315 25.6005
R380 vss.n317 vss.n316 25.6005
R381 vss.n318 vss.n317 25.6005
R382 vss.n319 vss.n318 25.6005
R383 vss.n320 vss.n319 25.6005
R384 vss.n321 vss.n320 25.6005
R385 vss.n322 vss.n321 25.6005
R386 vss.n323 vss.n322 25.6005
R387 vss.n324 vss.n323 25.6005
R388 vss.n325 vss.n324 25.6005
R389 vss.n326 vss.n325 25.6005
R390 vss.n327 vss.n326 25.6005
R391 vss.n328 vss.n327 25.6005
R392 vss.n329 vss.n328 25.6005
R393 vss.n331 vss.n329 25.6005
R394 vss.n333 vss.n331 25.6005
R395 vss.n335 vss.n333 25.6005
R396 vss.n241 vss.n240 25.6005
R397 vss.n240 vss.n239 25.6005
R398 vss.n239 vss.n238 25.6005
R399 vss.n238 vss.n237 25.6005
R400 vss.n237 vss.n236 25.6005
R401 vss.n236 vss.n235 25.6005
R402 vss.n235 vss.n234 25.6005
R403 vss.n234 vss.n233 25.6005
R404 vss.n233 vss.n232 25.6005
R405 vss.n232 vss.n231 25.6005
R406 vss.n231 vss.n230 25.6005
R407 vss.n230 vss.n229 25.6005
R408 vss.n229 vss.n228 25.6005
R409 vss.n228 vss.n227 25.6005
R410 vss.n227 vss.n226 25.6005
R411 vss.n285 vss.n284 25.6005
R412 vss.n286 vss.n285 25.6005
R413 vss.n287 vss.n286 25.6005
R414 vss.n288 vss.n287 25.6005
R415 vss.n289 vss.n288 25.6005
R416 vss.n290 vss.n289 25.6005
R417 vss.n291 vss.n290 25.6005
R418 vss.n292 vss.n291 25.6005
R419 vss.n293 vss.n292 25.6005
R420 vss.n294 vss.n293 25.6005
R421 vss.n295 vss.n294 25.6005
R422 vss.n296 vss.n295 25.6005
R423 vss.n297 vss.n296 25.6005
R424 vss.n298 vss.n297 25.6005
R425 vss.n300 vss.n298 25.6005
R426 vss.n302 vss.n300 25.6005
R427 vss.n304 vss.n302 25.6005
R428 vss.n412 vss.n411 16.8818
R429 vss.n395 vss.n394 16.8818
R430 vss.n413 vss.n412 16.8818
R431 vss.n396 vss.n395 16.8818
R432 vss.n381 vss.n380 16.5652
R433 vss.n35 vss.n34 16.5652
R434 vss.n244 vss.n243 16.1887
R435 vss.n307 vss.n306 16.1887
R436 vss.n484 vss.n483 13.3338
R437 vss.n170 vss.n169 9.75419
R438 vss.n308 vss.n307 9.31144
R439 vss.n36 vss.n35 9.31039
R440 vss.n382 vss.n381 9.31039
R441 vss.n502 vss.n501 9.3005
R442 vss.n501 vss.n500 9.3005
R443 vss.n59 vss.n58 9.3005
R444 vss.n58 vss.n57 9.3005
R445 vss.n426 vss.n425 9.3005
R446 vss.n425 vss.n424 9.3005
R447 vss.n477 vss.n476 9.3005
R448 vss.n478 vss.n477 9.3005
R449 vss.n278 vss.n277 9.3005
R450 vss.n279 vss.n278 9.3005
R451 vss.n280 vss.n279 9.3005
R452 vss.n283 vss.n282 9.3005
R453 vss.n282 vss.n281 9.3005
R454 vss.n281 vss.n280 9.3005
R455 vss.n384 vss.n383 9.0005
R456 vss.n38 vss.n37 9.0005
R457 vss.n310 vss.n309 9.0005
R458 vss.n280 vss.n170 8.67045
R459 vss.n500 vss.n496 5.01811
R460 vss.n57 vss.n56 5.01748
R461 vss.n343 vss 4.80467
R462 vss.n556 vss.n555 4.74217
R463 vss.n430 vss.n407 4.57427
R464 vss.n468 vss.n402 4.57427
R465 vss.n551 vss.n550 4.57427
R466 vss.n111 vss.n110 4.57427
R467 vss.n265 vss.n264 4.57427
R468 vss.n337 vss.n336 4.57427
R469 vss.n496 vss.n494 4.15288
R470 vss.n56 vss.n54 4.15252
R471 vss.n426 vss.n410 4.14168
R472 vss.n476 vss.n475 4.14168
R473 vss.n555 vss.n345 4.02849
R474 vss.n386 vss.n385 3.76521
R475 vss.n40 vss.n39 3.76521
R476 vss.n245 vss.n244 3.76521
R477 vss.n225 vss.n224 3.38874
R478 vss.n116 vss.n115 3.38874
R479 vss.n278 vss.n225 3.01226
R480 vss.n282 vss.n116 3.01226
R481 vss.n276 vss.n275 3.0005
R482 vss.n61 vss.n60 3.0005
R483 vss.n113 vss.n112 3.0005
R484 vss.n504 vss.n503 3.0005
R485 vss.n553 vss.n552 3.0005
R486 vss.n312 vss.n311 3.0005
R487 vss.n341 vss.n340 3.0005
R488 vss.n429 vss.n426 2.65111
R489 vss.n476 vss.n473 2.65111
R490 vss.n501 vss.n386 2.63579
R491 vss.n58 vss.n40 2.63579
R492 vss.n278 vss.n245 2.63579
R493 vss.n410 vss.n409 2.25932
R494 vss.n475 vss.n474 2.25932
R495 vss.n345 vss.n344 2.21752
R496 vss.n430 vss.n429 2.05223
R497 vss.n473 vss.n468 2.05223
R498 vss.n465 vss.n464 1.84239
R499 vss.n444 vss.n443 1.84237
R500 vss.n344 vss.n343 1.81065
R501 vss.n468 vss.n467 1.77862
R502 vss.n446 vss.n430 1.4761
R503 vss vss.n345 1.47472
R504 vss.n344 vss 0.752104