* NGSPICE file created from user_analog_project_wrapper.ext - technology: sky130A

.subckt M2_1 a_n98_n109# a_n40_n197# a_40_n109# VSUBS
X0 a_40_n109# a_n40_n197# a_n98_n109# VSUBS sky130_fd_pr__nfet_01v8_lvt ad=0.29 pd=2.58 as=0.29 ps=2.58 w=1 l=0.4
C0 a_40_n109# a_n98_n109# 0.104f
C1 a_n40_n197# a_n98_n109# 0.0145f
C2 a_n40_n197# a_40_n109# 0.0145f
C3 a_40_n109# VSUBS 0.122f
C4 a_n98_n109# VSUBS 0.122f
C5 a_n40_n197# VSUBS 0.259f
.ends

.subckt M2_inv a_n40_n201# a_40_n104# w_n236_n324# a_n98_n104# VSUBS
X0 a_40_n104# a_n40_n201# a_n98_n104# w_n236_n324# sky130_fd_pr__pfet_01v8_lvt ad=0.29 pd=2.58 as=0.29 ps=2.58 w=1 l=0.4
C0 a_n98_n104# a_40_n104# 0.104f
C1 a_n98_n104# a_n40_n201# 0.0145f
C2 w_n236_n324# a_40_n104# 0.0219f
C3 w_n236_n324# a_n40_n201# 0.12f
C4 a_40_n104# a_n40_n201# 0.0145f
C5 w_n236_n324# a_n98_n104# 0.0219f
C6 a_40_n104# VSUBS 0.1f
C7 a_n98_n104# VSUBS 0.1f
C8 a_n40_n201# VSUBS 0.146f
C9 w_n236_n324# VSUBS 0.804f
.ends

.subckt M1_inv a_40_n171# a_n40_n197# a_n98_n171# VSUBS
X0 a_40_n171# a_n40_n197# a_n98_n171# VSUBS sky130_fd_pr__nfet_01v8_lvt ad=0.29 pd=2.58 as=0.29 ps=2.58 w=1 l=0.4
C0 a_40_n171# a_n98_n171# 0.104f
C1 a_n40_n197# a_n98_n171# 0.0145f
C2 a_n40_n197# a_40_n171# 0.0145f
C3 a_40_n171# VSUBS 0.122f
C4 a_n98_n171# VSUBS 0.122f
C5 a_n40_n197# VSUBS 0.259f
.ends

.subckt inv_lvt M2_inv_0/a_n98_n104# M2_inv_0/w_n236_n324# M1_inv_0/a_n98_n171# m1_170_505#
+ m2_289_257# VSUBS
XM2_inv_0 m1_170_505# m2_289_257# M2_inv_0/w_n236_n324# M2_inv_0/a_n98_n104# VSUBS
+ M2_inv
XM1_inv_0 m2_289_257# m1_170_505# M1_inv_0/a_n98_n171# VSUBS M1_inv
C0 M2_inv_0/a_n98_n104# m2_289_257# 0.00845f
C1 M1_inv_0/a_n98_n171# M2_inv_0/w_n236_n324# 0.00225f
C2 M2_inv_0/a_n98_n104# m1_170_505# 0.0037f
C3 M1_inv_0/a_n98_n171# m2_289_257# 0.00845f
C4 M1_inv_0/a_n98_n171# m1_170_505# 0.00383f
C5 M2_inv_0/w_n236_n324# m2_289_257# 0.055f
C6 M2_inv_0/w_n236_n324# m1_170_505# 0.0237f
C7 M1_inv_0/a_n98_n171# M2_inv_0/a_n98_n104# 0.00387f
C8 m2_289_257# m1_170_505# 0.153f
C9 M2_inv_0/w_n236_n324# M2_inv_0/a_n98_n104# -1.52e-20
C10 M1_inv_0/a_n98_n171# VSUBS 0.122f
C11 m2_289_257# VSUBS 0.582f
C12 M2_inv_0/a_n98_n104# VSUBS 0.1f
C13 m1_170_505# VSUBS 0.453f
C14 M2_inv_0/w_n236_n324# VSUBS 0.804f
.ends

.subckt M1_2 a_n98_n109# a_n40_n197# a_40_n109# VSUBS
X0 a_40_n109# a_n40_n197# a_n98_n109# VSUBS sky130_fd_pr__nfet_01v8_lvt ad=0.29 pd=2.58 as=0.29 ps=2.58 w=1 l=0.4
C0 a_n98_n109# a_n40_n197# 0.0145f
C1 a_40_n109# a_n98_n109# 0.104f
C2 a_40_n109# a_n40_n197# 0.0145f
C3 a_40_n109# VSUBS 0.122f
C4 a_n98_n109# VSUBS 0.122f
C5 a_n40_n197# VSUBS 0.259f
.ends

.subckt latch vdd Qn S R Q m1_458_623# m1_1673_493# vss
XM2_1_0 vss m1_1673_493# Q vss M2_1
Xinv_lvt_0 vdd vdd vss R m1_1673_493# vss inv_lvt
Xinv_lvt_1 vdd vdd vss S m1_458_623# vss inv_lvt
Xinv_lvt_2 vdd vdd vss Qn Q vss inv_lvt
Xinv_lvt_3 vdd vdd vss Q Qn vss inv_lvt
XM1_2_0 Qn m1_458_623# vss vss M1_2
C0 S Q 1.46e-19
C1 m1_458_623# Qn 0.104f
C2 m1_1673_493# Qn 0.0703f
C3 m1_458_623# Q 0.0703f
C4 m1_1673_493# Q 0.104f
C5 R Q 0.0155f
C6 vdd Qn 0.221f
C7 m1_458_623# S 0.0354f
C8 vdd Q 0.528f
C9 vdd S 0.161f
C10 R m1_1673_493# 0.0354f
C11 vdd m1_458_623# 0.214f
C12 vdd m1_1673_493# 0.215f
C13 vdd R 0.159f
C14 Q Qn 0.655f
C15 S Qn 0.0154f
C16 Qn vss 0.899f
C17 Q vss 0.835f
C18 m1_458_623# vss 0.689f
C19 S vss 0.48f
C20 m1_1673_493# vss 0.686f
C21 R vss 0.479f
C22 vdd vss 7.03f
.ends

.subckt inv2 w_0_269# a_67_305# a_59_207# a_149_55# a_67_55# VSUBS
X0 a_67_55# a_59_207# a_149_55# VSUBS sky130_fd_pr__nfet_01v8 ad=0.169 pd=1.82 as=0.0878 ps=0.92 w=0.65 l=0.15
X1 a_149_55# a_59_207# a_67_55# VSUBS sky130_fd_pr__nfet_01v8 ad=0.0878 pd=0.92 as=0.169 ps=1.82 w=0.65 l=0.15
X2 a_67_305# a_59_207# a_149_55# w_0_269# sky130_fd_pr__pfet_01v8_hvt ad=0.26 pd=2.52 as=0.135 ps=1.27 w=1 l=0.15
X3 a_149_55# a_59_207# a_67_305# w_0_269# sky130_fd_pr__pfet_01v8_hvt ad=0.135 pd=1.27 as=0.26 ps=2.52 w=1 l=0.15
C0 a_67_305# a_67_55# 0.0423f
C1 a_67_305# w_0_269# 0.0521f
C2 w_0_269# a_67_55# 0.00649f
C3 a_149_55# a_67_55# 0.155f
C4 a_67_305# a_149_55# 0.209f
C5 a_149_55# w_0_269# 0.0061f
C6 a_67_305# a_59_207# 0.0631f
C7 a_59_207# a_67_55# 0.0638f
C8 a_59_207# w_0_269# 0.0742f
C9 a_59_207# a_149_55# 0.0894f
C10 a_67_55# VSUBS 0.266f
C11 a_149_55# VSUBS 0.0332f
C12 a_67_305# VSUBS 0.246f
C13 a_59_207# VSUBS 0.263f
C14 w_0_269# VSUBS 0.339f
.ends

.subckt decap_8 a_65_55# a_65_331# w_0_269# VSUBS
X0 a_65_55# a_65_331# a_65_55# VSUBS sky130_fd_pr__nfet_01v8 ad=0.286 pd=3.24 as=0.143 ps=1.62 w=0.55 l=2.89
X1 a_65_331# a_65_55# a_65_331# w_0_269# sky130_fd_pr__pfet_01v8_hvt ad=0.452 pd=4.52 as=0.226 ps=2.26 w=0.87 l=2.89
C0 w_0_269# a_65_331# 0.105f
C1 a_65_331# a_65_55# 1.27f
C2 w_0_269# a_65_55# 0.22f
C3 a_65_331# VSUBS 1.14f
C4 a_65_55# VSUBS 0.992f
C5 w_0_269# VSUBS 0.782f
.ends

.subckt M1_3 a_207_n176# a_n29_n176# a_26_55# a_n328_55# a_89_n176# a_n446_55# a_n564_55#
+ a_n210_55# a_n501_n176# a_561_n176# a_n383_n176# a_498_55# a_144_55# a_443_n176#
+ a_n265_n176# a_262_55# a_380_55# a_n619_n176# a_n92_55# w_n757_n324# a_325_n176#
+ a_n147_n176# VSUBS
X0 a_n383_n176# a_n446_55# a_n501_n176# w_n757_n324# sky130_fd_pr__pfet_01v8 ad=0.145 pd=1.29 as=0.145 ps=1.29 w=1 l=0.3
X1 a_n29_n176# a_n92_55# a_n147_n176# w_n757_n324# sky130_fd_pr__pfet_01v8 ad=0.145 pd=1.29 as=0.145 ps=1.29 w=1 l=0.3
X2 a_325_n176# a_262_55# a_207_n176# w_n757_n324# sky130_fd_pr__pfet_01v8 ad=0.145 pd=1.29 as=0.145 ps=1.29 w=1 l=0.3
X3 a_561_n176# a_498_55# a_443_n176# w_n757_n324# sky130_fd_pr__pfet_01v8 ad=0.29 pd=2.58 as=0.145 ps=1.29 w=1 l=0.3
X4 a_n265_n176# a_n328_55# a_n383_n176# w_n757_n324# sky130_fd_pr__pfet_01v8 ad=0.145 pd=1.29 as=0.145 ps=1.29 w=1 l=0.3
X5 a_89_n176# a_26_55# a_n29_n176# w_n757_n324# sky130_fd_pr__pfet_01v8 ad=0.145 pd=1.29 as=0.145 ps=1.29 w=1 l=0.3
X6 a_207_n176# a_144_55# a_89_n176# w_n757_n324# sky130_fd_pr__pfet_01v8 ad=0.145 pd=1.29 as=0.145 ps=1.29 w=1 l=0.3
X7 a_n501_n176# a_n564_55# a_n619_n176# w_n757_n324# sky130_fd_pr__pfet_01v8 ad=0.145 pd=1.29 as=0.29 ps=2.58 w=1 l=0.3
X8 a_n147_n176# a_n210_55# a_n265_n176# w_n757_n324# sky130_fd_pr__pfet_01v8 ad=0.145 pd=1.29 as=0.145 ps=1.29 w=1 l=0.3
X9 a_443_n176# a_380_55# a_325_n176# w_n757_n324# sky130_fd_pr__pfet_01v8 ad=0.145 pd=1.29 as=0.145 ps=1.29 w=1 l=0.3
C0 a_207_n176# a_325_n176# 0.121f
C1 a_n501_n176# a_n446_55# 0.0116f
C2 a_n265_n176# a_n383_n176# 0.121f
C3 a_26_55# w_n757_n324# 0.105f
C4 a_n92_55# a_n210_55# 0.0657f
C5 a_89_n176# a_207_n176# 0.121f
C6 a_n383_n176# a_n501_n176# 0.121f
C7 a_n92_55# a_n29_n176# 0.0116f
C8 a_n265_n176# w_n757_n324# 0.0274f
C9 a_n210_55# a_n328_55# 0.0657f
C10 a_n501_n176# w_n757_n324# 0.0247f
C11 w_n757_n324# a_262_55# 0.104f
C12 a_443_n176# a_561_n176# 0.121f
C13 a_n619_n176# a_n564_55# 0.0116f
C14 a_207_n176# w_n757_n324# 0.0274f
C15 a_325_n176# a_443_n176# 0.121f
C16 a_498_55# a_561_n176# 0.0116f
C17 a_144_55# a_89_n176# 0.0116f
C18 a_498_55# a_443_n176# 0.0116f
C19 a_n92_55# a_26_55# 0.0657f
C20 a_n265_n176# a_n328_55# 0.0116f
C21 a_380_55# a_262_55# 0.0657f
C22 a_26_55# a_n29_n176# 0.0116f
C23 a_144_55# w_n757_n324# 0.104f
C24 a_n265_n176# a_n210_55# 0.0116f
C25 a_n501_n176# a_n564_55# 0.0116f
C26 w_n757_n324# a_561_n176# 0.0913f
C27 w_n757_n324# a_443_n176# 0.0247f
C28 w_n757_n324# a_325_n176# 0.0258f
C29 a_n383_n176# a_n446_55# 0.0116f
C30 w_n757_n324# a_498_55# 0.13f
C31 a_n147_n176# w_n757_n324# 0.0258f
C32 a_n619_n176# a_n501_n176# 0.121f
C33 a_89_n176# w_n757_n324# 0.0258f
C34 w_n757_n324# a_n446_55# 0.105f
C35 a_n383_n176# w_n757_n324# 0.0258f
C36 a_380_55# a_443_n176# 0.0116f
C37 a_380_55# a_325_n176# 0.0116f
C38 a_n92_55# a_n147_n176# 0.0116f
C39 a_380_55# a_498_55# 0.0657f
C40 a_n210_55# a_n147_n176# 0.0116f
C41 a_207_n176# a_262_55# 0.0116f
C42 a_n147_n176# a_n29_n176# 0.121f
C43 a_n446_55# a_n564_55# 0.0657f
C44 a_n328_55# a_n446_55# 0.0657f
C45 a_89_n176# a_n29_n176# 0.121f
C46 a_144_55# a_26_55# 0.0657f
C47 a_n92_55# w_n757_n324# 0.105f
C48 a_n383_n176# a_n328_55# 0.0116f
C49 a_380_55# w_n757_n324# 0.105f
C50 w_n757_n324# a_n564_55# 0.13f
C51 a_n328_55# w_n757_n324# 0.104f
C52 a_144_55# a_262_55# 0.0657f
C53 a_n210_55# w_n757_n324# 0.104f
C54 w_n757_n324# a_n29_n176# 0.0238f
C55 a_n265_n176# a_n147_n176# 0.121f
C56 a_144_55# a_207_n176# 0.0116f
C57 a_89_n176# a_26_55# 0.0116f
C58 a_n619_n176# w_n757_n324# 0.0913f
C59 a_262_55# a_325_n176# 0.0116f
C60 a_561_n176# VSUBS 0.056f
C61 a_443_n176# VSUBS 0.0249f
C62 a_325_n176# VSUBS 0.0249f
C63 a_207_n176# VSUBS 0.0249f
C64 a_89_n176# VSUBS 0.0249f
C65 a_n29_n176# VSUBS 0.0249f
C66 a_n147_n176# VSUBS 0.0249f
C67 a_n265_n176# VSUBS 0.0249f
C68 a_n383_n176# VSUBS 0.0249f
C69 a_n501_n176# VSUBS 0.0249f
C70 a_n619_n176# VSUBS 0.056f
C71 a_498_55# VSUBS 0.0832f
C72 a_380_55# VSUBS 0.0669f
C73 a_262_55# VSUBS 0.0669f
C74 a_144_55# VSUBS 0.0669f
C75 a_26_55# VSUBS 0.0669f
C76 a_n92_55# VSUBS 0.0669f
C77 a_n210_55# VSUBS 0.0669f
C78 a_n328_55# VSUBS 0.0669f
C79 a_n446_55# VSUBS 0.0669f
C80 a_n564_55# VSUBS 0.0832f
C81 w_n757_n324# VSUBS 3.39f
.ends

.subckt M2_2 a_26_51# a_89_n171# a_n328_51# a_n446_51# a_n564_51# a_n501_n171# a_n210_51#
+ a_561_n171# a_n383_n171# a_498_51# a_443_n171# a_144_51# a_n265_n171# a_262_51#
+ a_n619_n171# a_380_51# a_n92_51# a_n721_n283# a_325_n171# a_n147_n171# a_207_n171#
+ a_n29_n171#
X0 a_89_n171# a_26_51# a_n29_n171# a_n721_n283# sky130_fd_pr__nfet_01v8 ad=0.145 pd=1.29 as=0.145 ps=1.29 w=1 l=0.3
X1 a_207_n171# a_144_51# a_89_n171# a_n721_n283# sky130_fd_pr__nfet_01v8 ad=0.145 pd=1.29 as=0.145 ps=1.29 w=1 l=0.3
X2 a_n147_n171# a_n210_51# a_n265_n171# a_n721_n283# sky130_fd_pr__nfet_01v8 ad=0.145 pd=1.29 as=0.145 ps=1.29 w=1 l=0.3
X3 a_n501_n171# a_n564_51# a_n619_n171# a_n721_n283# sky130_fd_pr__nfet_01v8 ad=0.145 pd=1.29 as=0.29 ps=2.58 w=1 l=0.3
X4 a_443_n171# a_380_51# a_325_n171# a_n721_n283# sky130_fd_pr__nfet_01v8 ad=0.145 pd=1.29 as=0.145 ps=1.29 w=1 l=0.3
X5 a_n383_n171# a_n446_51# a_n501_n171# a_n721_n283# sky130_fd_pr__nfet_01v8 ad=0.145 pd=1.29 as=0.145 ps=1.29 w=1 l=0.3
X6 a_n29_n171# a_n92_51# a_n147_n171# a_n721_n283# sky130_fd_pr__nfet_01v8 ad=0.145 pd=1.29 as=0.145 ps=1.29 w=1 l=0.3
X7 a_325_n171# a_262_51# a_207_n171# a_n721_n283# sky130_fd_pr__nfet_01v8 ad=0.145 pd=1.29 as=0.145 ps=1.29 w=1 l=0.3
X8 a_561_n171# a_498_51# a_443_n171# a_n721_n283# sky130_fd_pr__nfet_01v8 ad=0.29 pd=2.58 as=0.145 ps=1.29 w=1 l=0.3
X9 a_n265_n171# a_n328_51# a_n383_n171# a_n721_n283# sky130_fd_pr__nfet_01v8 ad=0.145 pd=1.29 as=0.145 ps=1.29 w=1 l=0.3
C0 a_n29_n171# a_89_n171# 0.121f
C1 a_n328_51# a_n210_51# 0.0633f
C2 a_n265_n171# a_n147_n171# 0.121f
C3 a_n446_51# a_n383_n171# 0.0116f
C4 a_325_n171# a_380_51# 0.0116f
C5 a_498_51# a_443_n171# 0.0116f
C6 a_n446_51# a_n328_51# 0.0633f
C7 a_561_n171# a_498_51# 0.0116f
C8 a_n265_n171# a_n383_n171# 0.121f
C9 a_144_51# a_89_n171# 0.0116f
C10 a_561_n171# a_443_n171# 0.121f
C11 a_n265_n171# a_n328_51# 0.0116f
C12 a_n92_51# a_26_51# 0.0633f
C13 a_n210_51# a_n92_51# 0.0633f
C14 a_n501_n171# a_n564_51# 0.0116f
C15 a_262_51# a_325_n171# 0.0116f
C16 a_144_51# a_207_n171# 0.0116f
C17 a_498_51# a_380_51# 0.0633f
C18 a_n265_n171# a_n210_51# 0.0116f
C19 a_n29_n171# a_n147_n171# 0.121f
C20 a_443_n171# a_380_51# 0.0116f
C21 a_89_n171# a_26_51# 0.0116f
C22 a_n501_n171# a_n383_n171# 0.121f
C23 a_262_51# a_207_n171# 0.0116f
C24 a_n383_n171# a_n328_51# 0.0116f
C25 a_n29_n171# a_26_51# 0.0116f
C26 a_n564_51# a_n619_n171# 0.0116f
C27 a_n29_n171# a_n92_51# 0.0116f
C28 a_325_n171# a_207_n171# 0.121f
C29 a_443_n171# a_325_n171# 0.121f
C30 a_n501_n171# a_n619_n171# 0.121f
C31 a_n446_51# a_n564_51# 0.0633f
C32 a_n501_n171# a_n446_51# 0.0116f
C33 a_262_51# a_144_51# 0.0633f
C34 a_n147_n171# a_n92_51# 0.0116f
C35 a_n147_n171# a_n210_51# 0.0116f
C36 a_144_51# a_26_51# 0.0633f
C37 a_89_n171# a_207_n171# 0.121f
C38 a_262_51# a_380_51# 0.0633f
C39 a_561_n171# a_n721_n283# 0.148f
C40 a_443_n171# a_n721_n283# 0.0499f
C41 a_325_n171# a_n721_n283# 0.051f
C42 a_207_n171# a_n721_n283# 0.0526f
C43 a_89_n171# a_n721_n283# 0.051f
C44 a_n29_n171# a_n721_n283# 0.0489f
C45 a_n147_n171# a_n721_n283# 0.051f
C46 a_n265_n171# a_n721_n283# 0.0526f
C47 a_n383_n171# a_n721_n283# 0.051f
C48 a_n501_n171# a_n721_n283# 0.0499f
C49 a_n619_n171# a_n721_n283# 0.148f
C50 a_498_51# a_n721_n283# 0.208f
C51 a_380_51# a_n721_n283# 0.169f
C52 a_262_51# a_n721_n283# 0.168f
C53 a_144_51# a_n721_n283# 0.168f
C54 a_26_51# a_n721_n283# 0.169f
C55 a_n92_51# a_n721_n283# 0.169f
C56 a_n210_51# a_n721_n283# 0.168f
C57 a_n328_51# a_n721_n283# 0.168f
C58 a_n446_51# a_n721_n283# 0.169f
C59 a_n564_51# a_n721_n283# 0.208f
.ends

.subckt inv_4 w_0_269# a_59_207# a_75_55# a_75_305# a_157_55# VSUBS
X0 a_75_55# a_59_207# a_157_55# VSUBS sky130_fd_pr__nfet_01v8 ad=0.0878 pd=0.92 as=0.0878 ps=0.92 w=0.65 l=0.15
X1 a_75_305# a_59_207# a_157_55# w_0_269# sky130_fd_pr__pfet_01v8_hvt ad=0.26 pd=2.52 as=0.135 ps=1.27 w=1 l=0.15
X2 a_157_55# a_59_207# a_75_305# w_0_269# sky130_fd_pr__pfet_01v8_hvt ad=0.135 pd=1.27 as=0.135 ps=1.27 w=1 l=0.15
X3 a_157_55# a_59_207# a_75_55# VSUBS sky130_fd_pr__nfet_01v8 ad=0.0878 pd=0.92 as=0.169 ps=1.82 w=0.65 l=0.15
X4 a_157_55# a_59_207# a_75_55# VSUBS sky130_fd_pr__nfet_01v8 ad=0.0878 pd=0.92 as=0.0878 ps=0.92 w=0.65 l=0.15
X5 a_75_305# a_59_207# a_157_55# w_0_269# sky130_fd_pr__pfet_01v8_hvt ad=0.135 pd=1.27 as=0.135 ps=1.27 w=1 l=0.15
X6 a_75_55# a_59_207# a_157_55# VSUBS sky130_fd_pr__nfet_01v8 ad=0.169 pd=1.82 as=0.0878 ps=0.92 w=0.65 l=0.15
X7 a_157_55# a_59_207# a_75_305# w_0_269# sky130_fd_pr__pfet_01v8_hvt ad=0.135 pd=1.27 as=0.26 ps=2.52 w=1 l=0.15
C0 a_157_55# a_59_207# 0.36f
C1 a_75_55# a_59_207# 0.0819f
C2 a_75_55# a_157_55# 0.263f
C3 w_0_269# a_75_305# 0.0654f
C4 a_75_305# a_59_207# 0.0982f
C5 a_157_55# a_75_305# 0.362f
C6 a_75_55# a_75_305# 0.0501f
C7 w_0_269# a_59_207# 0.142f
C8 a_157_55# w_0_269# 0.0159f
C9 a_75_55# w_0_269# 0.00667f
C10 a_75_55# VSUBS 0.327f
C11 a_157_55# VSUBS 0.0849f
C12 a_75_305# VSUBS 0.296f
C13 a_59_207# VSUBS 0.452f
C14 w_0_269# VSUBS 0.516f
.ends

.subckt decap_3 a_65_55# a_65_331# w_0_269# VSUBS
X0 a_65_55# a_65_331# a_65_55# VSUBS sky130_fd_pr__nfet_01v8 ad=0.286 pd=3.24 as=0.143 ps=1.62 w=0.55 l=0.59
X1 a_65_331# a_65_55# a_65_331# w_0_269# sky130_fd_pr__pfet_01v8_hvt ad=0.452 pd=4.52 as=0.226 ps=2.26 w=0.87 l=0.59
C0 w_0_269# a_65_331# 0.0625f
C1 a_65_55# w_0_269# 0.0797f
C2 a_65_55# a_65_331# 0.353f
C3 a_65_331# VSUBS 0.47f
C4 a_65_55# VSUBS 0.427f
C5 w_0_269# VSUBS 0.339f
.ends

.subckt sw_top en m2_1158_361# inv_4_1/w_0_269# out vdd in m2_990_200# vss
Xdecap_8_0 vss vdd inv_4_1/w_0_269# vss decap_8
XM1_3_0 out out m2_1158_361# m2_1158_361# in m2_1158_361# m2_1158_361# m2_1158_361#
+ out in in m2_1158_361# m2_1158_361# out out m2_1158_361# m2_1158_361# in m2_1158_361#
+ vdd in in vss M1_3
XM2_2_0 m2_990_200# in m2_990_200# m2_990_200# m2_990_200# out m2_990_200# in in m2_990_200#
+ out m2_990_200# out m2_990_200# in m2_990_200# m2_990_200# vss in in out out M2_2
Xinv_4_0 inv_4_1/w_0_269# m2_1158_361# vss vdd m2_990_200# vss inv_4
Xinv_4_1 inv_4_1/w_0_269# en vss vdd m2_1158_361# vss inv_4
Xdecap_3_0 vss vdd inv_4_1/w_0_269# vss decap_3
C0 m2_1158_361# vdd 0.548f
C1 m2_1158_361# in 0.366f
C2 inv_4_1/w_0_269# en 0.00756f
C3 m2_990_200# en 0.081f
C4 out vdd 0.251f
C5 in out 3.36f
C6 m2_1158_361# en 0.0497f
C7 inv_4_1/w_0_269# m2_990_200# 0.0362f
C8 in vdd 0.441f
C9 m2_1158_361# inv_4_1/w_0_269# 0.0273f
C10 out en 0.00104f
C11 m2_1158_361# m2_990_200# 0.495f
C12 vdd en 0.0781f
C13 in en 0.0114f
C14 out m2_990_200# 0.172f
C15 inv_4_1/w_0_269# vdd -0.0142f
C16 m2_1158_361# out 0.375f
C17 inv_4_1/w_0_269# in 0.00475f
C18 m2_990_200# vdd 0.418f
C19 in m2_990_200# 0.276f
C20 en vss 0.653f
C21 vdd vss 5.79f
C22 m2_990_200# vss 2.13f
C23 out vss 0.745f
C24 in vss 1.61f
C25 m2_1158_361# vss 1.84f
C26 inv_4_1/w_0_269# vss 1.95f
.ends

.subckt C7 m3_n450_n340# c1_n250_n240# VSUBS
X0 c1_n250_n240# m3_n450_n340# sky130_fd_pr__cap_mim_m3_1 l=2 w=2
C0 c1_n250_n240# m3_n450_n340# 0.503f
C1 c1_n250_n240# VSUBS 0.213f
C2 m3_n450_n340# VSUBS 0.722f
.ends

.subckt DUMMY m3_n450_n340# c1_n250_n240# VSUBS
X0 c1_n250_n240# m3_n450_n340# sky130_fd_pr__cap_mim_m3_1 l=2 w=2
C0 c1_n250_n240# m3_n450_n340# 0.503f
C1 c1_n250_n240# VSUBS 0.213f
C2 m3_n450_n340# VSUBS 0.722f
.ends

.subckt C6 m3_n450_n340# c1_n250_n240# VSUBS
X0 c1_n250_n240# m3_n450_n340# sky130_fd_pr__cap_mim_m3_1 l=2 w=2
C0 c1_n250_n240# m3_n450_n340# 0.503f
C1 c1_n250_n240# VSUBS 0.213f
C2 m3_n450_n340# VSUBS 0.722f
.ends

.subckt CDUM m3_n450_n340# c1_n250_n240# VSUBS
X0 c1_n250_n240# m3_n450_n340# sky130_fd_pr__cap_mim_m3_1 l=2 w=2
C0 c1_n250_n240# m3_n450_n340# 0.503f
C1 c1_n250_n240# VSUBS 0.213f
C2 m3_n450_n340# VSUBS 0.722f
.ends

.subckt C4 m3_n450_n340# c1_n250_n240# VSUBS
X0 c1_n250_n240# m3_n450_n340# sky130_fd_pr__cap_mim_m3_1 l=2 w=2
C0 c1_n250_n240# m3_n450_n340# 0.503f
C1 c1_n250_n240# VSUBS 0.213f
C2 m3_n450_n340# VSUBS 0.722f
.ends

.subckt C2 m3_n450_n340# c1_n250_n240# VSUBS
X0 c1_n250_n240# m3_n450_n340# sky130_fd_pr__cap_mim_m3_1 l=2 w=2
C0 c1_n250_n240# m3_n450_n340# 0.503f
C1 c1_n250_n240# VSUBS 0.213f
C2 m3_n450_n340# VSUBS 0.722f
.ends

.subckt C5 m3_n450_n340# c1_n250_n240# VSUBS
X0 c1_n250_n240# m3_n450_n340# sky130_fd_pr__cap_mim_m3_1 l=2 w=2
C0 c1_n250_n240# m3_n450_n340# 0.503f
C1 c1_n250_n240# VSUBS 0.213f
C2 m3_n450_n340# VSUBS 0.722f
.ends

.subckt C3 m3_n450_n340# c1_n250_n240# VSUBS
X0 c1_n250_n240# m3_n450_n340# sky130_fd_pr__cap_mim_m3_1 l=2 w=2
C0 c1_n250_n240# m3_n450_n340# 0.503f
C1 c1_n250_n240# VSUBS 0.213f
C2 m3_n450_n340# VSUBS 0.722f
.ends

.subckt C1 m3_n450_n340# c1_n250_n240# VSUBS
X0 c1_n250_n240# m3_n450_n340# sky130_fd_pr__cap_mim_m3_1 l=2 w=2
C0 c1_n250_n240# m3_n450_n340# 0.503f
C1 c1_n250_n240# VSUBS 0.213f
C2 m3_n450_n340# VSUBS 0.722f
.ends

.subckt C0_1 m3_n450_n340# c1_n250_n240# VSUBS
X0 c1_n250_n240# m3_n450_n340# sky130_fd_pr__cap_mim_m3_1 l=2 w=2
C0 c1_n250_n240# m3_n450_n340# 0.503f
C1 c1_n250_n240# VSUBS 0.213f
C2 m3_n450_n340# VSUBS 0.722f
.ends

.subckt carray n2 n3 via23_4_702/m2_1_40# m3_12800_1156# m3_23200_1156# m3_28400_1156#
+ m2_800_1156# m2_19000_1156# via23_4_584/m2_1_40# via23_4_331/m2_1_40# m3_6100_1156#
+ via23_4_213/m2_1_40# m3_24500_1156# m3_29700_1156# m2_15100_1156# via23_4_347/m2_1_40#
+ via23_4_326/m2_1_40# m3_2200_1156# via23_4_459/m2_1_40# m3_7400_1156# via23_4_354/m2_1_40#
+ m3_25800_1156# m3_31000_1156# m2_11200_1156# m3_36200_1156# m2_16400_1156# via23_4_250/m2_1_40#
+ m2_27200_1156# via23_4_710/m2_1_40# m3_3500_1156# via23_4_601/m2_1_40# m3_8700_1156#
+ via23_4_709/m2_1_40# m3_32300_1156# m2_12500_1156# m3_37500_1156# m2_17700_1156#
+ via23_4_198/m2_1_40# m2_23300_1156# m2_28500_1156# m3_4800_1156# via23_4_230/m2_1_40#
+ m3_33600_1156# m2_13800_1156# m3_38800_1156# via23_4_447/m2_1_40# via23_4_598/m2_1_40#
+ via23_4_676/m2_1_40# m3_19100_1156# m2_24600_1156# m2_29800_1156# m2_35000_1156#
+ m3_34900_1156# m3_40100_1156# m2_20300_1156# m3_10000_1156# via23_4_332/m2_1_40#
+ m3_15200_1156# m2_31100_1156# m2_25900_1156# via23_4_369/m2_1_40# m2_36300_1156#
+ via23_4_590/m2_1_40# m3_41400_1156# via23_4_379/m2_1_40# via23_4_220/m2_1_40# m3_11300_1156#
+ m3_16500_1156# m2_32400_1156# m2_37600_1156# via23_4_251/m2_1_40# m3_42700_1156#
+ via23_4_711/m2_1_40# via23_4_675/m2_1_40# m3_12600_1156# via23_4_345/m2_1_40# m3_17800_1156#
+ m3_28200_1156# m2_33700_1156# m3_5000_1156# m2_38900_1156# m3_900_1156# via23_4_635/m2_1_40#
+ via23_4_455/m2_1_40# via23_4_588/m2_1_40# m3_13900_1156# via23_4_414/m2_1_40# m3_24300_1156#
+ via23_4_439/m2_1_40# m2_40200_1156# m3_1100_1156# m3_29500_1156# via23_4_460/m2_1_40#
+ via23_4_218/m2_1_40# m3_6300_1156# via23_4_704/m2_1_40# via23_4_599/m2_1_40# via23_4_677/m2_1_40#
+ via23_4_249/m2_1_40# m3_20400_1156# m3_2400_1156# m3_25600_1156# m3_36000_1156#
+ m2_41500_1156# m3_7600_1156# via23_4_333/m2_1_40# via23_4_366/m2_1_40# m3_26900_1156#
+ m3_32100_1156# via23_4_429/m2_1_40# m2_42800_1156# m3_3700_1156# m3_37300_1156#
+ m3_8900_1156# m2_6000_1156# via23_4_128/m2_1_40# via23_4_458/m2_1_40# via23_4_199/m2_1_40#
+ ndum via23_4_381/m2_1_40# m3_18000_1156# n0 via23_4_419/m2_1_40# m3_33400_1156#
+ m3_38600_1156# m2_2100_1156# m2_7300_1156# via23_4_449/m2_1_40# via23_4_200/m2_1_40#
+ via23_4_712/m2_1_40# via23_4_346/m2_1_40# m3_14100_1156# n4 m3_19300_1156# via23_4_228/m2_1_40#
+ via23_4_641/m2_1_40# via23_4_378/m2_1_40# m3_34700_1156# m3_39900_1156# n1 m2_3400_1156#
+ via23_4_589/m2_1_40# n6 m2_8600_1156# m3_10200_1156# via23_4_642/m2_1_40# via23_4_245/m2_1_40#
+ m3_15400_1156# via23_4_368/m2_1_40# via23_4_705/m2_1_40# via23_4_446/m2_1_40# m3_30800_1156#
+ via23_4_678/m2_1_40# via23_4_600/m2_1_40# m3_41200_1156# m2_4700_1156# via23_4_96/m2_1_40#
+ m2_9900_1156# n5 m3_11500_1156# m3_16700_1156# via23_4_448/m2_1_40# m3_27100_1156#
+ via23_4_334/m2_1_40# m3_42500_1156# VSUBS via23_4_380/m2_1_40# top via23_4_229/m2_1_40#
+ n7 via23_4_367/m2_1_40#
XC7_121 n7 top VSUBS C7
XC7_110 n7 top VSUBS C7
XDUMMY_80 via23_4_712/m2_1_40# top VSUBS DUMMY
XC6_20 n6 top VSUBS C6
XC6_53 n6 top VSUBS C6
XC6_31 n6 top VSUBS C6
XC6_42 n6 top VSUBS C6
XC7_122 n7 top VSUBS C7
XC7_100 n7 top VSUBS C7
XC7_111 n7 top VSUBS C7
XDUMMY_81 via23_4_709/m2_1_40# top VSUBS DUMMY
XDUMMY_70 via23_4_642/m2_1_40# top VSUBS DUMMY
XC6_21 n6 top VSUBS C6
XC6_10 n6 top VSUBS C6
XC6_54 n6 top VSUBS C6
XC6_32 n6 top VSUBS C6
XC6_43 n6 top VSUBS C6
XC6_0 n6 top VSUBS C6
XC7_123 n7 top VSUBS C7
XC7_101 n7 top VSUBS C7
XC7_112 n7 top VSUBS C7
XDUMMY_71 via23_4_641/m2_1_40# top VSUBS DUMMY
XDUMMY_82 via23_4_439/m2_1_40# top VSUBS DUMMY
XDUMMY_60 via23_4_448/m2_1_40# top VSUBS DUMMY
XC6_44 n6 top VSUBS C6
XC6_22 n6 top VSUBS C6
XC6_55 n6 top VSUBS C6
XC6_11 n6 top VSUBS C6
XC6_33 n6 top VSUBS C6
XC6_1 n6 top VSUBS C6
XC7_124 n7 top VSUBS C7
XC7_102 n7 top VSUBS C7
XC7_113 n7 top VSUBS C7
XDUMMY_72 via23_4_676/m2_1_40# top VSUBS DUMMY
XDUMMY_83 via23_4_675/m2_1_40# top VSUBS DUMMY
XDUMMY_61 via23_4_588/m2_1_40# top VSUBS DUMMY
XDUMMY_50 via23_4_429/m2_1_40# top VSUBS DUMMY
XC6_56 n6 top VSUBS C6
XC6_12 n6 top VSUBS C6
XC6_45 n6 top VSUBS C6
XC6_23 n6 top VSUBS C6
XC6_34 n6 top VSUBS C6
XC6_2 n6 top VSUBS C6
XCDUM_0 ndum top VSUBS CDUM
XC7_103 n7 top VSUBS C7
XC7_125 n7 top VSUBS C7
XC7_114 n7 top VSUBS C7
XDUMMY_73 via23_4_677/m2_1_40# top VSUBS DUMMY
XDUMMY_62 via23_4_589/m2_1_40# top VSUBS DUMMY
XDUMMY_40 via23_4_326/m2_1_40# top VSUBS DUMMY
XDUMMY_51 via23_4_414/m2_1_40# top VSUBS DUMMY
XC6_57 n6 top VSUBS C6
XC6_24 n6 top VSUBS C6
XC6_46 n6 top VSUBS C6
XC6_13 n6 top VSUBS C6
XC6_35 n6 top VSUBS C6
XDUMMY_0 via23_4_3/m2_1_40# top VSUBS DUMMY
XC6_3 n6 top VSUBS C6
XC4_0 n4 top VSUBS C4
XC7_104 n7 top VSUBS C7
XC7_115 n7 top VSUBS C7
XC7_126 n7 top VSUBS C7
XDUMMY_74 via23_4_678/m2_1_40# top VSUBS DUMMY
XDUMMY_63 via23_4_590/m2_1_40# top VSUBS DUMMY
XDUMMY_30 via23_4_251/m2_1_40# top VSUBS DUMMY
XDUMMY_52 via23_4_381/m2_1_40# top VSUBS DUMMY
XDUMMY_41 via23_4_89/m2_1_40# top VSUBS DUMMY
XC6_47 n6 top VSUBS C6
XC6_14 n6 top VSUBS C6
XC6_58 n6 top VSUBS C6
XC6_25 n6 top VSUBS C6
XC6_36 n6 top VSUBS C6
XDUMMY_1 via23_4_9/m2_1_40# top VSUBS DUMMY
XC7_90 n7 top VSUBS C7
XC6_4 n6 top VSUBS C6
XC4_1 n4 top VSUBS C4
XC7_116 n7 top VSUBS C7
XC7_105 n7 top VSUBS C7
XC7_127 n7 top VSUBS C7
XDUMMY_20 via23_4_199/m2_1_40# top VSUBS DUMMY
XDUMMY_64 via23_4_584/m2_1_40# top VSUBS DUMMY
XDUMMY_31 via23_4_245/m2_1_40# top VSUBS DUMMY
XDUMMY_75 via23_4_704/m2_1_40# top VSUBS DUMMY
XDUMMY_42 via23_4_366/m2_1_40# top VSUBS DUMMY
XDUMMY_53 via23_4_449/m2_1_40# top VSUBS DUMMY
XC6_26 n6 top VSUBS C6
XC6_15 n6 top VSUBS C6
XC6_59 n6 top VSUBS C6
XC6_48 n6 top VSUBS C6
XDUMMY_2 via23_4_1/m2_1_40# top VSUBS DUMMY
XC6_37 n6 top VSUBS C6
XC7_91 n7 top VSUBS C7
XC7_80 n7 top VSUBS C7
XC6_5 n6 top VSUBS C6
XC4_2 n4 top VSUBS C4
XC7_117 n7 top VSUBS C7
XC7_106 n7 top VSUBS C7
XDUMMY_76 via23_4_702/m2_1_40# top VSUBS DUMMY
XDUMMY_65 via23_4_600/m2_1_40# top VSUBS DUMMY
XDUMMY_32 via23_4_331/m2_1_40# top VSUBS DUMMY
XDUMMY_21 via23_4_198/m2_1_40# top VSUBS DUMMY
XDUMMY_43 via23_4_367/m2_1_40# top VSUBS DUMMY
XDUMMY_54 via23_4_446/m2_1_40# top VSUBS DUMMY
XDUMMY_10 via23_4_90/m2_1_40# top VSUBS DUMMY
XC6_27 n6 top VSUBS C6
XC6_16 n6 top VSUBS C6
XC6_49 n6 top VSUBS C6
XC6_38 n6 top VSUBS C6
XDUMMY_3 via23_4_2/m2_1_40# top VSUBS DUMMY
XC7_92 n7 top VSUBS C7
XC7_81 n7 top VSUBS C7
XC7_70 n7 top VSUBS C7
XC6_6 n6 top VSUBS C6
XC4_3 n4 top VSUBS C4
XC7_118 n7 top VSUBS C7
XC7_107 n7 top VSUBS C7
XC2_0 n2 top VSUBS C2
XDUMMY_66 via23_4_601/m2_1_40# top VSUBS DUMMY
XDUMMY_33 via23_4_332/m2_1_40# top VSUBS DUMMY
XDUMMY_22 via23_4_220/m2_1_40# top VSUBS DUMMY
XDUMMY_77 via23_4_705/m2_1_40# top VSUBS DUMMY
XDUMMY_44 via23_4_368/m2_1_40# top VSUBS DUMMY
XDUMMY_55 via23_4_447/m2_1_40# top VSUBS DUMMY
XDUMMY_11 via23_4_96/m2_1_40# top VSUBS DUMMY
XC6_28 n6 top VSUBS C6
XC6_17 n6 top VSUBS C6
XC6_39 n6 top VSUBS C6
XDUMMY_4 via23_4_20/m2_1_40# top VSUBS DUMMY
XC7_60 n7 top VSUBS C7
XC7_93 n7 top VSUBS C7
XC7_82 n7 top VSUBS C7
XC7_71 n7 top VSUBS C7
XC6_7 n6 top VSUBS C6
XC4_4 n4 top VSUBS C4
XC7_119 n7 top VSUBS C7
XC7_108 n7 top VSUBS C7
XC2_1 n2 top VSUBS C2
XDUMMY_78 via23_4_710/m2_1_40# top VSUBS DUMMY
XDUMMY_67 via23_4_599/m2_1_40# top VSUBS DUMMY
XDUMMY_34 via23_4_333/m2_1_40# top VSUBS DUMMY
XDUMMY_23 via23_4_213/m2_1_40# top VSUBS DUMMY
XDUMMY_45 via23_4_369/m2_1_40# top VSUBS DUMMY
XDUMMY_56 via23_4_458/m2_1_40# top VSUBS DUMMY
XDUMMY_12 via23_4_103/m2_1_40# top VSUBS DUMMY
XC6_18 n6 top VSUBS C6
XC6_29 n6 top VSUBS C6
XDUMMY_5 via23_4_21/m2_1_40# top VSUBS DUMMY
XC7_61 n7 top VSUBS C7
XC7_94 n7 top VSUBS C7
XC7_50 n7 top VSUBS C7
XC7_72 n7 top VSUBS C7
XC7_83 n7 top VSUBS C7
XC6_8 n6 top VSUBS C6
XC4_5 n4 top VSUBS C4
XC7_109 n7 top VSUBS C7
XC2_2 n2 top VSUBS C2
XDUMMY_79 via23_4_711/m2_1_40# top VSUBS DUMMY
XDUMMY_68 via23_4_598/m2_1_40# top VSUBS DUMMY
XDUMMY_35 via23_4_347/m2_1_40# top VSUBS DUMMY
XDUMMY_24 via23_4_229/m2_1_40# top VSUBS DUMMY
XDUMMY_46 via23_4_378/m2_1_40# top VSUBS DUMMY
XDUMMY_57 via23_4_455/m2_1_40# top VSUBS DUMMY
XDUMMY_13 via23_4_91/m2_1_40# top VSUBS DUMMY
XC6_19 n6 top VSUBS C6
XDUMMY_6 via23_4_22/m2_1_40# top VSUBS DUMMY
XC7_62 n7 top VSUBS C7
XC7_40 n7 top VSUBS C7
XC7_95 n7 top VSUBS C7
XC7_51 n7 top VSUBS C7
XC7_73 n7 top VSUBS C7
XC7_84 n7 top VSUBS C7
XC6_9 n6 top VSUBS C6
XC4_6 n4 top VSUBS C4
XC2_3 n2 top VSUBS C2
XDUMMY_36 via23_4_354/m2_1_40# top VSUBS DUMMY
XDUMMY_25 via23_4_228/m2_1_40# top VSUBS DUMMY
XDUMMY_14 via23_4_94/m2_1_40# top VSUBS DUMMY
XDUMMY_69 via23_4_635/m2_1_40# top VSUBS DUMMY
XDUMMY_47 via23_4_379/m2_1_40# top VSUBS DUMMY
XDUMMY_58 via23_4_459/m2_1_40# top VSUBS DUMMY
XDUMMY_7 via23_4_23/m2_1_40# top VSUBS DUMMY
XC7_41 n7 top VSUBS C7
XC7_63 n7 top VSUBS C7
XC7_96 n7 top VSUBS C7
XC7_52 n7 top VSUBS C7
XC7_30 n7 top VSUBS C7
XC7_74 n7 top VSUBS C7
XC7_85 n7 top VSUBS C7
XC4_7 n4 top VSUBS C4
XDUMMY_37 via23_4_345/m2_1_40# top VSUBS DUMMY
XDUMMY_26 via23_4_230/m2_1_40# top VSUBS DUMMY
XDUMMY_48 via23_4_380/m2_1_40# top VSUBS DUMMY
XDUMMY_59 via23_4_460/m2_1_40# top VSUBS DUMMY
XDUMMY_15 via23_4_117/m2_1_40# top VSUBS DUMMY
XDUMMY_8 via23_4_87/m2_1_40# top VSUBS DUMMY
XC7_97 n7 top VSUBS C7
XC7_42 n7 top VSUBS C7
XC7_53 n7 top VSUBS C7
XC7_31 n7 top VSUBS C7
XC7_86 n7 top VSUBS C7
XC7_20 n7 top VSUBS C7
XC7_64 n7 top VSUBS C7
XC7_75 n7 top VSUBS C7
XC4_10 n4 top VSUBS C4
XC4_8 n4 top VSUBS C4
XDUMMY_38 via23_4_346/m2_1_40# top VSUBS DUMMY
XDUMMY_27 via23_4_218/m2_1_40# top VSUBS DUMMY
XDUMMY_16 via23_4_111/m2_1_40# top VSUBS DUMMY
XDUMMY_49 via23_4_419/m2_1_40# top VSUBS DUMMY
XDUMMY_9 via23_4_88/m2_1_40# top VSUBS DUMMY
XC7_98 n7 top VSUBS C7
XC7_43 n7 top VSUBS C7
XC7_54 n7 top VSUBS C7
XC7_32 n7 top VSUBS C7
XC7_87 n7 top VSUBS C7
XC7_65 n7 top VSUBS C7
XC7_10 n7 top VSUBS C7
XC7_21 n7 top VSUBS C7
XC7_76 n7 top VSUBS C7
XC4_11 n4 top VSUBS C4
XC4_9 n4 top VSUBS C4
XDUMMY_39 via23_4_334/m2_1_40# top VSUBS DUMMY
XDUMMY_28 via23_4_249/m2_1_40# top VSUBS DUMMY
XDUMMY_17 via23_4_128/m2_1_40# top VSUBS DUMMY
XC7_99 n7 top VSUBS C7
XC7_33 n7 top VSUBS C7
XC7_88 n7 top VSUBS C7
XC7_55 n7 top VSUBS C7
XC7_44 n7 top VSUBS C7
XC7_66 n7 top VSUBS C7
XC7_11 n7 top VSUBS C7
XC7_77 n7 top VSUBS C7
XC7_22 n7 top VSUBS C7
XC4_12 n4 top VSUBS C4
XDUMMY_29 via23_4_250/m2_1_40# top VSUBS DUMMY
XDUMMY_18 via23_4_95/m2_1_40# top VSUBS DUMMY
XC7_45 n7 top VSUBS C7
XC7_56 n7 top VSUBS C7
XC7_34 n7 top VSUBS C7
XC7_89 n7 top VSUBS C7
XC7_12 n7 top VSUBS C7
XC7_23 n7 top VSUBS C7
XC7_78 n7 top VSUBS C7
XC7_67 n7 top VSUBS C7
XC4_13 n4 top VSUBS C4
XDUMMY_19 via23_4_200/m2_1_40# top VSUBS DUMMY
XC7_46 n7 top VSUBS C7
XC7_57 n7 top VSUBS C7
XC7_24 n7 top VSUBS C7
XC7_35 n7 top VSUBS C7
XC7_13 n7 top VSUBS C7
XC7_79 n7 top VSUBS C7
XC7_68 n7 top VSUBS C7
XC4_14 n4 top VSUBS C4
XC7_36 n7 top VSUBS C7
XC7_58 n7 top VSUBS C7
XC7_47 n7 top VSUBS C7
XC7_25 n7 top VSUBS C7
XC7_14 n7 top VSUBS C7
XC7_69 n7 top VSUBS C7
XC4_15 n4 top VSUBS C4
XC7_0 n7 top VSUBS C7
XC7_37 n7 top VSUBS C7
XC7_59 n7 top VSUBS C7
XC7_26 n7 top VSUBS C7
XC7_48 n7 top VSUBS C7
XC7_15 n7 top VSUBS C7
XC7_1 n7 top VSUBS C7
XC7_38 n7 top VSUBS C7
XC7_27 n7 top VSUBS C7
XC7_49 n7 top VSUBS C7
XC7_16 n7 top VSUBS C7
XC7_2 n7 top VSUBS C7
XC7_39 n7 top VSUBS C7
XC7_28 n7 top VSUBS C7
XC7_17 n7 top VSUBS C7
XC7_3 n7 top VSUBS C7
XC5_0 n5 top VSUBS C5
XC7_29 n7 top VSUBS C7
XC7_18 n7 top VSUBS C7
XC7_4 n7 top VSUBS C7
XC5_1 n5 top VSUBS C5
XC7_19 n7 top VSUBS C7
XC5_30 n5 top VSUBS C5
XC7_5 n7 top VSUBS C7
XC5_2 n5 top VSUBS C5
XC5_31 n5 top VSUBS C5
XC5_20 n5 top VSUBS C5
XC7_6 n7 top VSUBS C7
XC5_3 n5 top VSUBS C5
XC3_0 n3 top VSUBS C3
XC5_10 n5 top VSUBS C5
XC5_21 n5 top VSUBS C5
XC7_7 n7 top VSUBS C7
XC5_4 n5 top VSUBS C5
XC3_1 n3 top VSUBS C3
XC5_22 n5 top VSUBS C5
XC5_11 n5 top VSUBS C5
XC7_8 n7 top VSUBS C7
XC5_5 n5 top VSUBS C5
XC3_2 n3 top VSUBS C3
XC5_23 n5 top VSUBS C5
XC7_9 n7 top VSUBS C7
XC5_12 n5 top VSUBS C5
XC5_6 n5 top VSUBS C5
XC3_3 n3 top VSUBS C3
XC1_0 n1 top VSUBS C1
XC5_24 n5 top VSUBS C5
XC5_13 n5 top VSUBS C5
XC5_7 n5 top VSUBS C5
XC3_4 n3 top VSUBS C3
XC1_1 n1 top VSUBS C1
XC5_25 n5 top VSUBS C5