* SPICE3 file created from sarlogic_flat.ext - technology: sky130B

.subckt sarlogic cal clk ctln[2] ctln[4] ctln[6] ctln[7] ctlp[0] ctlp[1] ctlp[2]
+ ctlp[3] ctlp[4] ctlp[5] ctlp[6] ctlp[7] en result[0] result[2] result[4] result[6]
+ result[7] rstn trim[0] trim[2] trim[4] trimb[0] trimb[2] clkc trimb[4] ctln[1] ctln[3]
+ trimb[1] trimb[3] result[1] sample result[3] trim[1] result[5] comp ctln[0] trim[3]
+ valid ctln[5] VPWR VGND
X0 clknet_0_clk a_8022_7119# VPWR.t1119 VPWR.t1118 sky130_fd_pr__pfet_01v8_hvt ad=0.14 pd=1.28 as=0.138 ps=1.27 w=1 l=0.15
X1 VGND.t220 clknet_0_clk a_2857_7637# VGND.t219 sky130_fd_pr__nfet_01v8 ad=0.0588 pd=0.7 as=0.0588 ps=0.7 w=0.42 l=0.15
X2 a_745_10933# a_579_10933# VPWR.t3280 VPWR.t3279 sky130_fd_pr__pfet_01v8_hvt ad=0.166 pd=1.8 as=0.0864 ps=0.91 w=0.64 l=0.15
X3 VGND.t1861 VPWR.t3333 VGND.t1860 VGND.t1859 sky130_fd_pr__nfet_01v8 ad=0.143 pd=1.62 as=0 ps=0 w=0.55 l=4.73
X4 a_7710_9839# a_6633_9845# a_7548_10217# VPWR.t829 sky130_fd_pr__pfet_01v8_hvt ad=0.0567 pd=0.69 as=0.0588 ps=0.7 w=0.42 l=0.15
X5 trimb[4].t3 a_15023_8751# VPWR.t2674 VPWR.t2673 sky130_fd_pr__pfet_01v8_hvt ad=0.14 pd=1.28 as=0.14 ps=1.28 w=1 l=0.15
X6 VPWR.t2195 a_4677_7882# net15 VPWR.t2194 sky130_fd_pr__pfet_01v8_hvt ad=0.115 pd=1.08 as=0.205 ps=2.1 w=0.79 l=0.15
X7 a_14172_1513# a_13257_1141# a_13825_1109# VGND.t2156 sky130_fd_pr__nfet_01v8 ad=0.0711 pd=0.755 as=0.0999 ps=0.985 w=0.36 l=0.15
X8 VGND.t2015 _066_ a_11045_5807# VGND.t2014 sky130_fd_pr__nfet_01v8 ad=0.101 pd=0.96 as=0.114 ps=1 w=0.65 l=0.15
X9 a_12612_8725# a_12436_9129# a_12756_9117# VGND.t7 sky130_fd_pr__nfet_01v8 ad=0.109 pd=1.36 as=0.0441 ps=0.63 w=0.42 l=0.15
X10 a_11856_2589# _026_ VGND.t584 VGND.t583 sky130_fd_pr__nfet_01v8 ad=0.066 pd=0.745 as=0.221 ps=1.89 w=0.42 l=0.15
X11 a_10329_1921# a_10111_1679# VGND.t269 VGND.t268 sky130_fd_pr__nfet_01v8 ad=0.0999 pd=0.985 as=0.135 ps=1.15 w=0.64 l=0.15
X12 VPWR.t2910 clknet_2_2__leaf_clk a_9595_1679# VPWR.t2909 sky130_fd_pr__pfet_01v8_hvt ad=0.0864 pd=0.91 as=0.166 ps=1.8 w=0.64 l=0.15
X13 _096_ _095_ a_4725_5487# VPWR.t2918 sky130_fd_pr__pfet_01v8_hvt ad=0.26 pd=2.52 as=0.105 ps=1.21 w=1 l=0.15
X14 _011_ _086_ a_1137_11721# VPWR.t2398 sky130_fd_pr__pfet_01v8_hvt ad=0.26 pd=2.52 as=0.105 ps=1.21 w=1 l=0.15
X15 VGND.t2322 _104_ a_11321_3855# VGND.t2321 sky130_fd_pr__nfet_01v8 ad=0.101 pd=0.96 as=0.114 ps=1 w=0.65 l=0.15
X16 VPWR.t2355 net2 a_14807_8359# VPWR.t2354 sky130_fd_pr__pfet_01v8_hvt ad=0.118 pd=1.4 as=0.0567 ps=0.69 w=0.42 l=0.15
X17 a_5340_6031# a_4425_6031# a_4993_6273# VGND.t2282 sky130_fd_pr__nfet_01v8 ad=0.0711 pd=0.755 as=0.0999 ps=0.985 w=0.36 l=0.15
X18 VGND.t2636 a_3339_2767# net45 VGND.t2635 sky130_fd_pr__nfet_01v8 ad=0.172 pd=1.83 as=0.0878 ps=0.92 w=0.65 l=0.15
X19 a_9195_10357# net47 VPWR.t2734 VPWR.t2733 sky130_fd_pr__pfet_01v8_hvt ad=0.0567 pd=0.69 as=0.0819 ps=0.81 w=0.42 l=0.15
X20 VGND.t2893 mask\[3\] a_2368_9955# VGND.t2892 sky130_fd_pr__nfet_01v8 ad=0.1 pd=0.985 as=0.0567 ps=0.69 w=0.42 l=0.15
X21 VGND.t913 clknet_2_1__leaf_clk.t32 a_2787_9845# VGND.t912 sky130_fd_pr__nfet_01v8 ad=0.0567 pd=0.69 as=0.109 ps=1.36 w=0.42 l=0.15
X22 VGND.t1873 _082_ _007_ VGND.t1872 sky130_fd_pr__nfet_01v8 ad=0.169 pd=1.82 as=0.0878 ps=0.92 w=0.65 l=0.15
X23 a_12061_7669# a_11895_7669# VGND.t2152 VGND.t2151 sky130_fd_pr__nfet_01v8 ad=0.109 pd=1.36 as=0.0567 ps=0.69 w=0.42 l=0.15
X24 VPWR.t1339 net16 net8 VPWR.t1338 sky130_fd_pr__pfet_01v8_hvt ad=0.26 pd=2.52 as=0.135 ps=1.27 w=1 l=0.15
X25 mask\[5\] a_7999_11231# VGND.t596 VGND.t595 sky130_fd_pr__nfet_01v8 ad=0.169 pd=1.82 as=0.209 ps=2.02 w=0.65 l=0.15
X26 net23 a_1651_7093# VPWR.t2502 VPWR.t2501 sky130_fd_pr__pfet_01v8_hvt ad=0.26 pd=2.52 as=0.301 ps=2.66 w=1 l=0.15
X27 VPWR.t1642 a_9802_4007# a_9478_4105# VPWR.t1641 sky130_fd_pr__pfet_01v8_hvt ad=0.162 pd=1.33 as=0.28 ps=2.56 w=1 l=0.15
X28 VPWR.t26 VGND.t3254 VPWR.t25 VPWR.t24 sky130_fd_pr__pfet_01v8_hvt ad=0.226 pd=2.26 as=0 ps=0 w=0.87 l=0.59
X29 _063_.t3 a_8307_6575# VPWR.t1646 VPWR.t1645 sky130_fd_pr__pfet_01v8_hvt ad=0.135 pd=1.27 as=0.26 ps=2.52 w=1 l=0.15
X30 a_3224_2601# a_2143_2229# a_2877_2197# VPWR.t2523 sky130_fd_pr__pfet_01v8_hvt ad=0.0588 pd=0.7 as=0.129 ps=1.18 w=0.42 l=0.15
X31 a_7197_7119# a_6007_7119# a_7088_7119# VGND.t2526 sky130_fd_pr__nfet_01v8 ad=0.0669 pd=0.75 as=0.0711 ps=0.755 w=0.36 l=0.15
X32 _012_ a_855_4105# VPWR.t3330 VPWR.t3329 sky130_fd_pr__pfet_01v8_hvt ad=0.26 pd=2.52 as=0.155 ps=1.31 w=1 l=0.15
X33 a_5535_8181# _077_ VGND.t855 VGND.t854 sky130_fd_pr__nfet_01v8 ad=0.169 pd=1.82 as=0.0878 ps=0.92 w=0.65 l=0.15
X34 VGND.t1858 VPWR.t3334 VGND.t1857 VGND.t1856 sky130_fd_pr__nfet_01v8 ad=0.143 pd=1.62 as=0 ps=0 w=0.55 l=2.89
X35 a_3751_4765# _048_.t12 a_3388_4631# VGND.t2077 sky130_fd_pr__nfet_01v8 ad=0.0693 pd=0.75 as=0.0997 ps=0.895 w=0.42 l=0.15
X36 a_9099_3689# a_8583_3317# a_9004_3677# VGND.t647 sky130_fd_pr__nfet_01v8 ad=0.0594 pd=0.69 as=0.066 ps=0.745 w=0.36 l=0.15
X37 a_8083_8181# _072_ VPWR.t1399 VPWR.t1398 sky130_fd_pr__pfet_01v8_hvt ad=0.195 pd=1.39 as=0.327 ps=1.65 w=1 l=0.15
X38 a_14071_3689# a_13625_3317# a_13975_3689# VGND.t17 sky130_fd_pr__nfet_01v8 ad=0.14 pd=1.1 as=0.0594 ps=0.69 w=0.36 l=0.15
X39 VGND.t1855 VPWR.t3335 VGND.t1854 VGND.t1853 sky130_fd_pr__nfet_01v8 ad=0.143 pd=1.62 as=0 ps=0 w=0.55 l=2.89
X40 VPWR.t1974 a_3868_10217# a_4043_10143# VPWR.t1973 sky130_fd_pr__pfet_01v8_hvt ad=0.113 pd=1.38 as=0.0567 ps=0.69 w=0.42 l=0.15
X41 VGND.t1959 _125_ a_15159_9269# VGND.t1958 sky130_fd_pr__nfet_01v8 ad=0.109 pd=1.36 as=0.109 ps=1.36 w=0.42 l=0.15
X42 VGND.t1852 VPWR.t3336 VGND.t1851 VGND.t1850 sky130_fd_pr__nfet_01v8 ad=0.143 pd=1.62 as=0 ps=0 w=0.55 l=0.59
X43 a_14485_7663# _132_ _133_ VPWR.t1544 sky130_fd_pr__pfet_01v8_hvt ad=0.105 pd=1.21 as=0.165 ps=1.33 w=1 l=0.15
X44 VGND.t1849 VPWR.t3337 VGND.t1848 VGND.t1675 sky130_fd_pr__nfet_01v8 ad=0.143 pd=1.62 as=0 ps=0 w=0.55 l=0.59
X45 VPWR.t3004 a_11059_7356# a_10990_7485# VPWR.t3003 sky130_fd_pr__pfet_01v8_hvt ad=0.218 pd=2.2 as=0.129 ps=1.18 w=0.84 l=0.15
X46 VGND.t2688 net47 a_10621_7119# VGND.t2687 sky130_fd_pr__nfet_01v8 ad=0.125 pd=1.01 as=0.064 ps=0.725 w=0.42 l=0.15
X47 a_2787_10927# _101_ a_2869_11247# VGND.t326 sky130_fd_pr__nfet_01v8 ad=0.169 pd=1.82 as=0.0747 ps=0.88 w=0.65 l=0.15
X48 VPWR.t2101 _048_.t13 a_4091_5309# VPWR.t2100 sky130_fd_pr__pfet_01v8_hvt ad=0.0588 pd=0.7 as=0.0567 ps=0.69 w=0.42 l=0.15
X49 VGND.t2310 net2 a_14788_7369# VGND.t2309 sky130_fd_pr__nfet_01v8 ad=0.1 pd=0.985 as=0.0567 ps=0.69 w=0.42 l=0.15
X50 VPWR.t3310 net34.t2 net39 VPWR.t3309 sky130_fd_pr__pfet_01v8_hvt ad=0.26 pd=2.52 as=0.135 ps=1.27 w=1 l=0.15
X51 a_4091_5309# a_4308_4917# a_4266_4943# VGND.t1010 sky130_fd_pr__nfet_01v8 ad=0.109 pd=1.36 as=0.0441 ps=0.63 w=0.42 l=0.15
X52 a_1000_12381# _011_ VPWR.t2358 VPWR.t2357 sky130_fd_pr__pfet_01v8_hvt ad=0.0651 pd=0.73 as=0.109 ps=1.36 w=0.42 l=0.15
X53 a_10676_1679# a_9761_1679# a_10329_1921# VGND.t3037 sky130_fd_pr__nfet_01v8 ad=0.0711 pd=0.755 as=0.0999 ps=0.985 w=0.36 l=0.15
X54 a_7902_10205# net44 VGND.t3066 VGND.t3065 sky130_fd_pr__nfet_01v8 ad=0.064 pd=0.725 as=0.125 ps=1.01 w=0.42 l=0.15
X55 VPWR.t29 VGND.t3255 VPWR.t28 VPWR.t27 sky130_fd_pr__pfet_01v8_hvt ad=0.226 pd=2.26 as=0 ps=0 w=0.87 l=4.73
X56 a_10903_7261# clknet_2_3__leaf_clk VGND.t779 VGND.t778 sky130_fd_pr__nfet_01v8 ad=0.109 pd=1.36 as=0.0567 ps=0.69 w=0.42 l=0.15
X57 a_6619_7119# a_6173_7119# a_6523_7119# VGND.t905 sky130_fd_pr__nfet_01v8 ad=0.14 pd=1.1 as=0.0594 ps=0.69 w=0.36 l=0.15
X58 a_9007_2601# a_8657_2229# a_8912_2589# VPWR.t3226 sky130_fd_pr__pfet_01v8_hvt ad=0.0724 pd=0.765 as=0.0651 ps=0.73 w=0.42 l=0.15
X59 sample.t3 a_455_5747# VPWR.t1757 VPWR.t1756 sky130_fd_pr__pfet_01v8_hvt ad=0.14 pd=1.28 as=0.3 ps=2.6 w=1 l=0.15
X60 _085_ net28 VGND.t1941 VGND.t1940 sky130_fd_pr__nfet_01v8 ad=0.091 pd=0.93 as=0.172 ps=1.83 w=0.65 l=0.15
X61 a_6181_10383# mask\[4\] VGND.t1949 VGND.t1948 sky130_fd_pr__nfet_01v8 ad=0.0747 pd=0.88 as=0.169 ps=1.82 w=0.65 l=0.15
X62 _058_ a_10188_4105# VPWR.t3089 VPWR.t3088 sky130_fd_pr__pfet_01v8_hvt ad=0.34 pd=2.68 as=0.146 ps=1.34 w=1 l=0.15
X63 ctlp[4].t1 a_10752_12533# VPWR.t1523 VPWR.t1522 sky130_fd_pr__pfet_01v8_hvt ad=0.135 pd=1.27 as=0.265 ps=2.53 w=1 l=0.15
X64 net17 a_11803_10383# VGND.t765 VGND.t764 sky130_fd_pr__nfet_01v8 ad=0.135 pd=1.56 as=0.0754 ps=0.81 w=0.52 l=0.15
X65 a_7010_3311# trim_mask\[4\] a_6927_3311# VPWR.t1954 sky130_fd_pr__pfet_01v8_hvt ad=0.14 pd=1.28 as=0.265 ps=2.53 w=1 l=0.15
X66 a_9889_6873# cal_itt\[0\] VGND.t3020 VGND.t3019 sky130_fd_pr__nfet_01v8 ad=0.109 pd=1.36 as=0.145 ps=1.11 w=0.42 l=0.15
X67 a_14335_4020# _108_ VPWR.t1515 VPWR.t1514 sky130_fd_pr__pfet_01v8_hvt ad=0.205 pd=2.1 as=0.115 ps=1.08 w=0.79 l=0.15
X68 VGND.t759 a_2283_4020# _013_ VGND.t758 sky130_fd_pr__nfet_01v8 ad=0.0754 pd=0.81 as=0.135 ps=1.56 w=0.52 l=0.15
X69 VGND.t1847 VPWR.t3338 VGND.t1846 VGND.t1305 sky130_fd_pr__nfet_01v8 ad=0.143 pd=1.62 as=0 ps=0 w=0.55 l=0.59
X70 a_9103_2601# a_8657_2229# a_9007_2601# VGND.t3155 sky130_fd_pr__nfet_01v8 ad=0.14 pd=1.1 as=0.0594 ps=0.69 w=0.36 l=0.15
X71 trim_val\[0\] a_14347_4917# VGND.t2921 VGND.t142 sky130_fd_pr__nfet_01v8 ad=0.169 pd=1.82 as=0.209 ps=2.02 w=0.65 l=0.15
X72 a_1279_9129# a_763_8757# a_1184_9117# VGND.t2929 sky130_fd_pr__nfet_01v8 ad=0.0594 pd=0.69 as=0.066 ps=0.745 w=0.36 l=0.15
X73 a_7891_3617# _050_ VPWR.t2159 VPWR.t2158 sky130_fd_pr__pfet_01v8_hvt ad=0.109 pd=1.36 as=0.0714 ps=0.76 w=0.42 l=0.15
X74 a_2815_9447# mask\[2\] a_2961_9545# VPWR.t2491 sky130_fd_pr__pfet_01v8_hvt ad=0.26 pd=2.52 as=0.135 ps=1.27 w=1 l=0.15
X75 net22 a_1651_6005# VPWR.t2743 VPWR.t2742 sky130_fd_pr__pfet_01v8_hvt ad=0.26 pd=2.52 as=0.301 ps=2.66 w=1 l=0.15
X76 _092_ a_10005_6031# VGND.t2418 VGND.t2417 sky130_fd_pr__nfet_01v8 ad=0.0878 pd=0.92 as=0.0878 ps=0.92 w=0.65 l=0.15
X77 VPWR.t2157 _050_ a_6763_5193# VPWR.t2156 sky130_fd_pr__pfet_01v8_hvt ad=0.135 pd=1.27 as=0.135 ps=1.27 w=1 l=0.15
X78 VPWR.t2676 a_4863_4917# _095_ VPWR.t2675 sky130_fd_pr__pfet_01v8_hvt ad=0.327 pd=1.65 as=0.28 ps=2.56 w=1 l=0.15
X79 VPWR.t32 VGND.t3256 VPWR.t31 VPWR.t30 sky130_fd_pr__pfet_01v8_hvt ad=0.226 pd=2.26 as=0 ps=0 w=0.87 l=0.59
X80 VPWR.t35 VGND.t3257 VPWR.t34 VPWR.t33 sky130_fd_pr__pfet_01v8_hvt ad=0.226 pd=2.26 as=0 ps=0 w=0.87 l=4.73
X81 a_14564_6397# a_14379_6397# VPWR.t1648 VPWR.t1647 sky130_fd_pr__pfet_01v8_hvt ad=0.0609 pd=0.71 as=0.0767 ps=0.785 w=0.42 l=0.15
X82 a_7942_2223# a_7223_2465# a_7379_2197# VGND.t894 sky130_fd_pr__nfet_01v8 ad=0.066 pd=0.745 as=0.0594 ps=0.69 w=0.36 l=0.15
X83 a_11233_4405# a_11067_4405# VPWR.t1717 VPWR.t1716 sky130_fd_pr__pfet_01v8_hvt ad=0.166 pd=1.8 as=0.0864 ps=0.91 w=0.64 l=0.15
X84 a_10137_4943# net30.t4 _118_ VGND.t0 sky130_fd_pr__nfet_01v8 ad=0.0878 pd=0.92 as=0.169 ps=1.82 w=0.65 l=0.15
X85 VGND.t319 a_7723_10143# a_7657_10217# VGND.t318 sky130_fd_pr__nfet_01v8 ad=0.125 pd=1.01 as=0.0669 ps=0.75 w=0.42 l=0.15
X86 trim[1].t7 a_15083_4659# VGND.t604 VGND.t603 sky130_fd_pr__nfet_01v8 ad=0.0588 pd=0.7 as=0.0588 ps=0.7 w=0.42 l=0.15
X87 ctlp[6].t7 a_6927_12559# VGND.t612 VGND.t611 sky130_fd_pr__nfet_01v8 ad=0.0588 pd=0.7 as=0.0588 ps=0.7 w=0.42 l=0.15
X88 VGND.t121 a_448_9269# result[3].t3 VGND.t120 sky130_fd_pr__nfet_01v8 ad=0.097 pd=0.975 as=0.0878 ps=0.92 w=0.65 l=0.15
X89 VPWR.t38 VGND.t3258 VPWR.t37 VPWR.t36 sky130_fd_pr__pfet_01v8_hvt ad=0.226 pd=2.26 as=0 ps=0 w=0.87 l=0.59
X90 net52 a_5691_7637# VPWR.t2236 VPWR.t2235 sky130_fd_pr__pfet_01v8_hvt ad=0.135 pd=1.27 as=0.135 ps=1.27 w=1 l=0.15
X91 a_7715_3285# a_7891_3617# a_7843_3677# VGND.t2443 sky130_fd_pr__nfet_01v8 ad=0.109 pd=1.36 as=0.0504 ps=0.66 w=0.42 l=0.15
X92 a_1638_6397# a_561_6031# a_1476_6031# VPWR.t1167 sky130_fd_pr__pfet_01v8_hvt ad=0.0567 pd=0.69 as=0.0588 ps=0.7 w=0.42 l=0.15
X93 VPWR.t2610 a_14172_4943# a_14347_4917# VPWR.t2609 sky130_fd_pr__pfet_01v8_hvt ad=0.113 pd=1.38 as=0.0567 ps=0.69 w=0.42 l=0.15
X94 a_2014_12381# net43.t8 VGND.t2465 VGND.t2464 sky130_fd_pr__nfet_01v8 ad=0.064 pd=0.725 as=0.125 ps=1.01 w=0.42 l=0.15
X95 VPWR.t2248 net52 a_2225_7663# VPWR.t2247 sky130_fd_pr__pfet_01v8_hvt ad=0.155 pd=1.31 as=0.16 ps=1.32 w=1 l=0.15
X96 VPWR.t1449 a_2857_5461# clknet_2_0__leaf_clk VPWR.t1448 sky130_fd_pr__pfet_01v8_hvt ad=0.14 pd=1.28 as=0.14 ps=1.28 w=1 l=0.15
X97 VGND.t1845 VPWR.t3339 VGND.t1844 VGND.t1129 sky130_fd_pr__nfet_01v8 ad=0.143 pd=1.62 as=0 ps=0 w=0.55 l=0.59
X98 VGND.t107 a_10747_8970# _035_ VGND.t106 sky130_fd_pr__nfet_01v8 ad=0.0754 pd=0.81 as=0.135 ps=1.56 w=0.52 l=0.15
X99 net7 net15 VGND.t2162 VGND.t2161 sky130_fd_pr__nfet_01v8 ad=0.0878 pd=0.92 as=0.169 ps=1.82 w=0.65 l=0.15
X100 a_3977_7119# a_2787_7119# a_3868_7119# VGND.t3187 sky130_fd_pr__nfet_01v8 ad=0.0669 pd=0.75 as=0.0711 ps=0.755 w=0.36 l=0.15
X101 VPWR.t2436 a_8298_5487# clknet_2_3__leaf_clk VPWR.t2435 sky130_fd_pr__pfet_01v8_hvt ad=0.138 pd=1.27 as=0.14 ps=1.28 w=1 l=0.15
X102 VGND.t689 a_2857_5461# clknet_2_0__leaf_clk VGND.t688 sky130_fd_pr__nfet_01v8 ad=0.0588 pd=0.7 as=0.0588 ps=0.7 w=0.42 l=0.15
X103 VGND.t23 net9 a_12631_591# VGND.t22 sky130_fd_pr__nfet_01v8 ad=0.097 pd=0.975 as=0.109 ps=1.36 w=0.42 l=0.15
X104 a_13881_2741# trim_val\[1\] VGND.t31 VGND.t30 sky130_fd_pr__nfet_01v8 ad=0.0894 pd=0.925 as=0.257 ps=1.44 w=0.65 l=0.15
X105 VPWR.t3187 a_13059_4631# _111_ VPWR.t3186 sky130_fd_pr__pfet_01v8_hvt ad=0.167 pd=1.39 as=0.475 ps=2.95 w=1 l=0.15
X106 clknet_2_1__leaf_clk.t31 a_2857_7637# VGND.t175 VGND.t174 sky130_fd_pr__nfet_01v8 ad=0.0588 pd=0.7 as=0.111 ps=1.37 w=0.42 l=0.15
X107 a_13142_8725# a_12992_8751# VPWR.t3211 VPWR.t3210 sky130_fd_pr__pfet_01v8_hvt ad=0.218 pd=2.2 as=0.123 ps=1.17 w=0.84 l=0.15
X108 VPWR.t3224 _053_ a_11098_6691# VPWR.t3223 sky130_fd_pr__pfet_01v8_hvt ad=0.146 pd=1.34 as=0.0441 ps=0.63 w=0.42 l=0.15
X109 result[6].t7 a_455_12533# VGND.t2903 VGND.t2902 sky130_fd_pr__nfet_01v8 ad=0.0588 pd=0.7 as=0.122 ps=1.42 w=0.42 l=0.15
X110 VGND.t1843 VPWR.t3340 VGND.t1842 VGND.t1841 sky130_fd_pr__nfet_01v8 ad=0.143 pd=1.62 as=0 ps=0 w=0.55 l=0.59
X111 a_1493_5487# net22 _079_ VPWR.t2748 sky130_fd_pr__pfet_01v8_hvt ad=0.14 pd=1.28 as=0.265 ps=2.53 w=1 l=0.15
X112 VPWR.t1676 clknet_2_1__leaf_clk.t33 a_3431_10933# VPWR.t1675 sky130_fd_pr__pfet_01v8_hvt ad=0.0864 pd=0.91 as=0.166 ps=1.8 w=0.64 l=0.15
X113 VPWR.t2513 a_13519_4007# _113_ VPWR.t2512 sky130_fd_pr__pfet_01v8_hvt ad=0.167 pd=1.39 as=0.475 ps=2.95 w=1 l=0.15
X114 a_4609_9295# a_4443_9295# VPWR.t2519 VPWR.t2518 sky130_fd_pr__pfet_01v8_hvt ad=0.166 pd=1.8 as=0.0864 ps=0.91 w=0.64 l=0.15
X115 a_8270_8029# net43.t9 VGND.t2467 VGND.t2466 sky130_fd_pr__nfet_01v8 ad=0.064 pd=0.725 as=0.125 ps=1.01 w=0.42 l=0.15
X116 VPWR.t1117 a_8022_7119# clknet_0_clk VPWR.t1116 sky130_fd_pr__pfet_01v8_hvt ad=0.265 pd=2.53 as=0.14 ps=1.28 w=1 l=0.15
X117 _096_ _092_ VGND.t2430 VGND.t2429 sky130_fd_pr__nfet_01v8 ad=0.0878 pd=0.92 as=0.169 ps=1.82 w=0.65 l=0.15
X118 a_14249_8725# _125_ VGND.t1957 VGND.t1956 sky130_fd_pr__nfet_01v8 ad=0.0894 pd=0.925 as=0.257 ps=1.44 w=0.65 l=0.15
X119 a_14181_6031# _134_ VGND.t2510 VGND.t2509 sky130_fd_pr__nfet_01v8 ad=0.0683 pd=0.86 as=0.0878 ps=0.92 w=0.65 l=0.15
X120 VPWR.t962 clknet_0_clk a_8298_2767# VPWR.t961 sky130_fd_pr__pfet_01v8_hvt ad=0.14 pd=1.28 as=0.14 ps=1.28 w=1 l=0.15
X121 a_9207_3311# net46 VPWR.t2862 VPWR.t2861 sky130_fd_pr__pfet_01v8_hvt ad=0.109 pd=1.36 as=0.0703 ps=0.755 w=0.42 l=0.15
X122 VGND.t2664 net45 a_4995_7119# VGND.t2663 sky130_fd_pr__nfet_01v8 ad=0.097 pd=0.975 as=0.109 ps=1.36 w=0.42 l=0.15
X123 a_4886_4399# net54 VPWR.t2774 VPWR.t2773 sky130_fd_pr__pfet_01v8_hvt ad=0.135 pd=1.27 as=0.19 ps=1.38 w=1 l=0.15
X124 VGND.t2821 a_1835_12319# a_1769_12393# VGND.t2820 sky130_fd_pr__nfet_01v8 ad=0.125 pd=1.01 as=0.0669 ps=0.75 w=0.42 l=0.15
X125 a_3781_8207# a_3615_8207# VGND.t2825 VGND.t2824 sky130_fd_pr__nfet_01v8 ad=0.109 pd=1.36 as=0.0567 ps=0.69 w=0.42 l=0.15
X126 VPWR.t1497 a_14981_4020# net31 VPWR.t1496 sky130_fd_pr__pfet_01v8_hvt ad=0.115 pd=1.08 as=0.205 ps=2.1 w=0.79 l=0.15
X127 VPWR.t1539 clknet_2_3__leaf_clk a_14379_6397# VPWR.t1538 sky130_fd_pr__pfet_01v8_hvt ad=0.0767 pd=0.785 as=0.109 ps=1.36 w=0.42 l=0.15
X128 VGND.t2686 net47 a_8717_10383# VGND.t2685 sky130_fd_pr__nfet_01v8 ad=0.135 pd=1.15 as=0.0441 ps=0.63 w=0.42 l=0.15
X129 VPWR.t41 VGND.t3259 VPWR.t40 VPWR.t39 sky130_fd_pr__pfet_01v8_hvt ad=0.226 pd=2.26 as=0 ps=0 w=0.87 l=0.59
X130 ctln[6].t7 a_6927_591# VGND.t2258 VGND.t2257 sky130_fd_pr__nfet_01v8 ad=0.0588 pd=0.7 as=0.0703 ps=0.755 w=0.42 l=0.15
X131 _022_ a_2787_10927# VPWR.t1077 VPWR.t1076 sky130_fd_pr__pfet_01v8_hvt ad=0.26 pd=2.52 as=0.155 ps=1.31 w=1 l=0.15
X132 a_1007_10217# a_561_9845# a_911_10217# VGND.t2827 sky130_fd_pr__nfet_01v8 ad=0.14 pd=1.1 as=0.0594 ps=0.69 w=0.36 l=0.15
X133 a_4239_8573# a_3615_8207# a_4131_8207# VPWR.t2872 sky130_fd_pr__pfet_01v8_hvt ad=0.116 pd=0.97 as=0.0724 ps=0.765 w=0.42 l=0.15
X134 a_9458_9661# a_8381_9295# a_9296_9295# VPWR.t2738 sky130_fd_pr__pfet_01v8_hvt ad=0.0567 pd=0.69 as=0.0588 ps=0.7 w=0.42 l=0.15
X135 VPWR.t1745 a_15023_10927# trimb[0].t3 VPWR.t1744 sky130_fd_pr__pfet_01v8_hvt ad=0.14 pd=1.28 as=0.14 ps=1.28 w=1 l=0.15
X136 a_4775_6031# a_4425_6031# a_4680_6031# VPWR.t2321 sky130_fd_pr__pfet_01v8_hvt ad=0.0724 pd=0.765 as=0.0651 ps=0.73 w=0.42 l=0.15
X137 VPWR.t2282 net11 a_8767_591# VPWR.t2281 sky130_fd_pr__pfet_01v8_hvt ad=0.149 pd=1.33 as=0.166 ps=1.8 w=0.64 l=0.15
X138 _126_ a_14236_8457# VGND.t2250 VGND.t2249 sky130_fd_pr__nfet_01v8 ad=0.169 pd=1.82 as=0.1 ps=0.985 w=0.65 l=0.15
X139 VGND.t568 _065_.t4 _101_ VGND.t567 sky130_fd_pr__nfet_01v8 ad=0.0878 pd=0.92 as=0.0878 ps=0.92 w=0.65 l=0.15
X140 a_14335_2442# _108_ VPWR.t1513 VPWR.t1512 sky130_fd_pr__pfet_01v8_hvt ad=0.205 pd=2.1 as=0.115 ps=1.08 w=0.79 l=0.15
X141 a_13512_4943# _029_ VPWR.t2656 VPWR.t2655 sky130_fd_pr__pfet_01v8_hvt ad=0.0651 pd=0.73 as=0.109 ps=1.36 w=0.42 l=0.15
X142 _103_ _092_ VGND.t2428 VGND.t2427 sky130_fd_pr__nfet_01v8 ad=0.0878 pd=0.92 as=0.169 ps=1.82 w=0.65 l=0.15
X143 a_3557_5193# _092_ a_3461_5193# VPWR.t2470 sky130_fd_pr__pfet_01v8_hvt ad=0.135 pd=1.27 as=0.165 ps=1.33 w=1 l=0.15
X144 VPWR.t44 VGND.t3260 VPWR.t43 VPWR.t42 sky130_fd_pr__pfet_01v8_hvt ad=0.226 pd=2.26 as=0 ps=0 w=0.87 l=1.05
X145 a_7223_2465# clknet_2_2__leaf_clk VGND.t2863 VGND.t2862 sky130_fd_pr__nfet_01v8 ad=0.109 pd=1.36 as=0.0567 ps=0.69 w=0.42 l=0.15
X146 _098_ a_6210_4989# VGND.t576 VGND.t575 sky130_fd_pr__nfet_01v8 ad=0.0878 pd=0.92 as=0.169 ps=1.82 w=0.65 l=0.15
X147 _104_ net30.t5 VPWR.t1 VPWR.t0 sky130_fd_pr__pfet_01v8_hvt ad=0.135 pd=1.27 as=0.135 ps=1.27 w=1 l=0.15
X148 VPWR.t2990 a_1476_10217# a_1651_10143# VPWR.t2989 sky130_fd_pr__pfet_01v8_hvt ad=0.113 pd=1.38 as=0.0567 ps=0.69 w=0.42 l=0.15
X149 a_13100_8751# a_12153_8757# a_12992_8751# VPWR.t2996 sky130_fd_pr__pfet_01v8_hvt ad=0.0441 pd=0.63 as=0.0819 ps=0.81 w=0.42 l=0.15
X150 trim_mask\[0\] a_12323_4703# VPWR.t1276 VPWR.t1275 sky130_fd_pr__pfet_01v8_hvt ad=0.135 pd=1.27 as=0.301 ps=2.66 w=1 l=0.15
X151 VGND.t2861 clknet_2_2__leaf_clk a_9595_1679# VGND.t2860 sky130_fd_pr__nfet_01v8 ad=0.0567 pd=0.69 as=0.109 ps=1.36 w=0.42 l=0.15
X152 VPWR.t2908 clknet_2_2__leaf_clk a_13459_3317# VPWR.t2907 sky130_fd_pr__pfet_01v8_hvt ad=0.0864 pd=0.91 as=0.166 ps=1.8 w=0.64 l=0.15
X153 VPWR.t47 VGND.t3261 VPWR.t46 VPWR.t45 sky130_fd_pr__pfet_01v8_hvt ad=0.226 pd=2.26 as=0 ps=0 w=0.87 l=4.73
X154 trim_val\[2\] a_14347_1439# VGND.t2573 VGND.t2572 sky130_fd_pr__nfet_01v8 ad=0.169 pd=1.82 as=0.209 ps=2.02 w=0.65 l=0.15
X155 a_9503_4399# _107_ _108_ VPWR.t983 sky130_fd_pr__pfet_01v8_hvt ad=0.27 pd=2.54 as=0.135 ps=1.27 w=1 l=0.15
X156 VGND.t2815 net46 a_13869_4943# VGND.t2814 sky130_fd_pr__nfet_01v8 ad=0.135 pd=1.15 as=0.0441 ps=0.63 w=0.42 l=0.15
X157 VGND.t1840 VPWR.t3341 VGND.t1839 VGND.t1838 sky130_fd_pr__nfet_01v8 ad=0.143 pd=1.62 as=0 ps=0 w=0.55 l=4.73
X158 VPWR.t50 VGND.t3262 VPWR.t49 VPWR.t48 sky130_fd_pr__pfet_01v8_hvt ad=0.226 pd=2.26 as=0 ps=0 w=0.87 l=4.73
X159 VGND.t1837 VPWR.t3342 VGND.t1836 VGND.t1835 sky130_fd_pr__nfet_01v8 ad=0.143 pd=1.62 as=0 ps=0 w=0.55 l=4.73
X160 VGND.t1834 VPWR.t3343 VGND.t1833 VGND.t1832 sky130_fd_pr__nfet_01v8 ad=0.143 pd=1.62 as=0 ps=0 w=0.55 l=1.97
X161 VGND.t218 clknet_0_clk a_8298_5487# VGND.t217 sky130_fd_pr__nfet_01v8 ad=0.0588 pd=0.7 as=0.0588 ps=0.7 w=0.42 l=0.15
X162 VPWR.t53 VGND.t3263 VPWR.t52 VPWR.t51 sky130_fd_pr__pfet_01v8_hvt ad=0.226 pd=2.26 as=0 ps=0 w=0.87 l=1.05
X163 VGND.t2628 a_15023_8751# trimb[4].t7 VGND.t2627 sky130_fd_pr__nfet_01v8 ad=0.122 pd=1.42 as=0.0588 ps=0.7 w=0.42 l=0.15
X164 a_6909_10933# a_6743_10933# VPWR.t2882 VPWR.t2881 sky130_fd_pr__pfet_01v8_hvt ad=0.166 pd=1.8 as=0.0864 ps=0.91 w=0.64 l=0.15
X165 a_12169_2197# a_11951_2601# VPWR.t2886 VPWR.t2885 sky130_fd_pr__pfet_01v8_hvt ad=0.129 pd=1.18 as=0.218 ps=2.2 w=0.84 l=0.15
X166 trim_mask\[2\] a_12691_2527# VPWR.t2754 VPWR.t2753 sky130_fd_pr__pfet_01v8_hvt ad=0.26 pd=2.52 as=0.301 ps=2.66 w=1 l=0.15
X167 a_1095_11305# a_745_10933# a_1000_11293# VPWR.t2005 sky130_fd_pr__pfet_01v8_hvt ad=0.0724 pd=0.765 as=0.0651 ps=0.73 w=0.42 l=0.15
X168 a_2601_3285# a_2383_3689# VPWR.t3238 VPWR.t3237 sky130_fd_pr__pfet_01v8_hvt ad=0.129 pd=1.18 as=0.218 ps=2.2 w=0.84 l=0.15
X169 VPWR.t1062 a_5363_12559# ctlp[7].t3 VPWR.t1061 sky130_fd_pr__pfet_01v8_hvt ad=0.3 pd=2.6 as=0.14 ps=1.28 w=1 l=0.15
X170 a_8105_10383# a_7939_10383# VPWR.t1941 VPWR.t1940 sky130_fd_pr__pfet_01v8_hvt ad=0.166 pd=1.8 as=0.0864 ps=0.91 w=0.64 l=0.15
X171 clknet_2_1__leaf_clk.t15 a_2857_7637# VPWR.t916 VPWR.t915 sky130_fd_pr__pfet_01v8_hvt ad=0.14 pd=1.28 as=0.14 ps=1.28 w=1 l=0.15
X172 a_14335_4020# _108_ VGND.t755 VGND.t754 sky130_fd_pr__nfet_01v8 ad=0.135 pd=1.56 as=0.0754 ps=0.81 w=0.52 l=0.15
X173 a_12522_8751# a_11987_8757# a_12436_9129# VPWR.t1721 sky130_fd_pr__pfet_01v8_hvt ad=0.0945 pd=0.87 as=0.0567 ps=0.69 w=0.42 l=0.15
X174 a_9459_7895# _067_ VPWR.t1728 VPWR.t1727 sky130_fd_pr__pfet_01v8_hvt ad=0.0662 pd=0.735 as=0.142 ps=1.34 w=0.42 l=0.15
X175 a_14199_7369# _129_ VPWR.t1196 VPWR.t1195 sky130_fd_pr__pfet_01v8_hvt ad=0.135 pd=1.27 as=0.14 ps=1.28 w=1 l=0.15
X176 a_4959_1679# a_4609_1679# a_4864_1679# VPWR.t2924 sky130_fd_pr__pfet_01v8_hvt ad=0.0724 pd=0.765 as=0.0651 ps=0.73 w=0.42 l=0.15
X177 VGND.t2563 trim_val\[3\] a_11292_1251# VGND.t2562 sky130_fd_pr__nfet_01v8 ad=0.1 pd=0.985 as=0.0567 ps=0.69 w=0.42 l=0.15
X178 a_4883_6397# a_4259_6031# a_4775_6031# VPWR.t2622 sky130_fd_pr__pfet_01v8_hvt ad=0.116 pd=0.97 as=0.0724 ps=0.765 w=0.42 l=0.15
X179 VPWR.t56 VGND.t3264 VPWR.t55 VPWR.t54 sky130_fd_pr__pfet_01v8_hvt ad=0.226 pd=2.26 as=0 ps=0 w=0.87 l=4.73
X180 VGND.t1877 a_4687_11231# a_4621_11305# VGND.t1876 sky130_fd_pr__nfet_01v8 ad=0.125 pd=1.01 as=0.0669 ps=0.75 w=0.42 l=0.15
X181 clknet_0_clk a_8022_7119# VPWR.t1115 VPWR.t1114 sky130_fd_pr__pfet_01v8_hvt ad=0.14 pd=1.28 as=0.14 ps=1.28 w=1 l=0.15
X182 net5 a_15023_6031# VPWR.t2472 VPWR.t2471 sky130_fd_pr__pfet_01v8_hvt ad=0.205 pd=2.1 as=0.115 ps=1.08 w=0.79 l=0.15
X183 VPWR.t59 VGND.t3265 VPWR.t58 VPWR.t57 sky130_fd_pr__pfet_01v8_hvt ad=0.226 pd=2.26 as=0 ps=0 w=0.87 l=1.05
X184 VGND.t911 a_448_10357# result[4].t3 VGND.t910 sky130_fd_pr__nfet_01v8 ad=0.097 pd=0.975 as=0.0878 ps=0.92 w=0.65 l=0.15
X185 a_8298_2767# clknet_0_clk VPWR.t960 VPWR.t959 sky130_fd_pr__pfet_01v8_hvt ad=0.14 pd=1.28 as=0.265 ps=2.53 w=1 l=0.15
X186 VGND.t1831 VPWR.t3344 VGND.t1830 VGND.t1829 sky130_fd_pr__nfet_01v8 ad=0.143 pd=1.62 as=0 ps=0 w=0.55 l=4.73
X187 a_4864_9295# _019_ VGND.t1012 VGND.t1011 sky130_fd_pr__nfet_01v8 ad=0.066 pd=0.745 as=0.221 ps=1.89 w=0.42 l=0.15
X188 VPWR.t62 VGND.t3266 VPWR.t61 VPWR.t60 sky130_fd_pr__pfet_01v8_hvt ad=0.226 pd=2.26 as=0 ps=0 w=0.87 l=1.05
X189 a_5177_1921# a_4959_1679# VPWR.t2926 VPWR.t2925 sky130_fd_pr__pfet_01v8_hvt ad=0.129 pd=1.18 as=0.218 ps=2.2 w=0.84 l=0.15
X190 a_9503_4399# _106_ VPWR.t2220 VPWR.t2219 sky130_fd_pr__pfet_01v8_hvt ad=0.135 pd=1.27 as=0.135 ps=1.27 w=1 l=0.15
X191 a_12257_4777# a_11067_4405# a_12148_4777# VGND.t955 sky130_fd_pr__nfet_01v8 ad=0.0669 pd=0.75 as=0.0711 ps=0.755 w=0.36 l=0.15
X192 VPWR.t2868 a_1835_12319# a_1822_12015# VPWR.t2867 sky130_fd_pr__pfet_01v8_hvt ad=0.0819 pd=0.81 as=0.0567 ps=0.69 w=0.42 l=0.15
X193 _034_ a_4167_6575# VPWR.t3002 VPWR.t3001 sky130_fd_pr__pfet_01v8_hvt ad=0.205 pd=2.1 as=0.115 ps=1.08 w=0.79 l=0.15
X194 VGND.t405 a_10055_2767# net46 VGND.t404 sky130_fd_pr__nfet_01v8 ad=0.0588 pd=0.7 as=0.0588 ps=0.7 w=0.42 l=0.15
X195 a_6633_9845# a_6467_9845# VPWR.t2404 VPWR.t2403 sky130_fd_pr__pfet_01v8_hvt ad=0.166 pd=1.8 as=0.0864 ps=0.91 w=0.64 l=0.15
X196 VGND.t1828 VPWR.t3345 VGND.t1827 VGND.t1642 sky130_fd_pr__nfet_01v8 ad=0.143 pd=1.62 as=0 ps=0 w=0.55 l=0.59
X197 a_7442_7119# net44 VGND.t3064 VGND.t3063 sky130_fd_pr__nfet_01v8 ad=0.064 pd=0.725 as=0.125 ps=1.01 w=0.42 l=0.15
X198 VPWR.t65 VGND.t3267 VPWR.t64 VPWR.t63 sky130_fd_pr__pfet_01v8_hvt ad=0.226 pd=2.26 as=0 ps=0 w=0.87 l=2.89
X199 VPWR.t68 VGND.t3268 VPWR.t67 VPWR.t66 sky130_fd_pr__pfet_01v8_hvt ad=0.226 pd=2.26 as=0 ps=0 w=0.87 l=1.05
X200 VGND.t1826 VPWR.t3346 VGND.t1825 VGND.t1824 sky130_fd_pr__nfet_01v8 ad=0.143 pd=1.62 as=0 ps=0 w=0.55 l=4.73
X201 VPWR.t71 VGND.t3269 VPWR.t70 VPWR.t69 sky130_fd_pr__pfet_01v8_hvt ad=0.226 pd=2.26 as=0 ps=0 w=0.87 l=1.97
X202 VPWR.t3083 cal_itt\[0\] a_9957_7663# VPWR.t759 sky130_fd_pr__pfet_01v8_hvt ad=0.147 pd=1.29 as=0.14 ps=1.28 w=1 l=0.15
X203 VPWR.t74 VGND.t3270 VPWR.t73 VPWR.t72 sky130_fd_pr__pfet_01v8_hvt ad=0.226 pd=2.26 as=0 ps=0 w=0.87 l=2.89
X204 VPWR.t77 VGND.t3271 VPWR.t76 VPWR.t75 sky130_fd_pr__pfet_01v8_hvt ad=0.226 pd=2.26 as=0 ps=0 w=0.87 l=0.59
X205 VPWR.t1972 a_8949_9537# a_8839_9661# VPWR.t1971 sky130_fd_pr__pfet_01v8_hvt ad=0.0703 pd=0.755 as=0.116 ps=0.97 w=0.42 l=0.15
X206 VPWR.t2541 a_14249_8725# _129_ VPWR.t2540 sky130_fd_pr__pfet_01v8_hvt ad=0.26 pd=2.52 as=0.26 ps=2.52 w=1 l=0.15
X207 a_11575_8790# _123_.t3 a_11116_8983# VPWR.t1329 sky130_fd_pr__pfet_01v8_hvt ad=0.0441 pd=0.63 as=0.193 ps=1.34 w=0.42 l=0.15
X208 _051_.t5 a_3933_2767# VPWR.t1769 VPWR.t1768 sky130_fd_pr__pfet_01v8_hvt ad=0.135 pd=1.27 as=0.135 ps=1.27 w=1 l=0.15
X209 VPWR.t2333 a_13697_4373# _109_ VPWR.t2332 sky130_fd_pr__pfet_01v8_hvt ad=0.26 pd=2.52 as=0.26 ps=2.52 w=1 l=0.15
X210 VGND.t50 a_5691_2741# _050_ VGND.t49 sky130_fd_pr__nfet_01v8 ad=0.0878 pd=0.92 as=0.0878 ps=0.92 w=0.65 l=0.15
X211 a_9839_3615# a_9664_3689# a_10018_3677# VGND.t51 sky130_fd_pr__nfet_01v8 ad=0.109 pd=1.36 as=0.064 ps=0.725 w=0.42 l=0.15
X212 a_12516_2601# a_11435_2229# a_12169_2197# VPWR.t1367 sky130_fd_pr__pfet_01v8_hvt ad=0.0588 pd=0.7 as=0.129 ps=1.18 w=0.42 l=0.15
X213 _094_ mask\[0\] VGND.t972 VGND.t971 sky130_fd_pr__nfet_01v8 ad=0.0878 pd=0.92 as=0.169 ps=1.82 w=0.65 l=0.15
X214 _059_ net55 VGND.t3135 VGND.t3134 sky130_fd_pr__nfet_01v8 ad=0.0878 pd=0.92 as=0.169 ps=1.82 w=0.65 l=0.15
X215 VPWR.t80 VGND.t3272 VPWR.t79 VPWR.t78 sky130_fd_pr__pfet_01v8_hvt ad=0.226 pd=2.26 as=0 ps=0 w=0.87 l=1.97
X216 a_2948_3689# a_1867_3317# a_2601_3285# VPWR.t1660 sky130_fd_pr__pfet_01v8_hvt ad=0.0588 pd=0.7 as=0.129 ps=1.18 w=0.42 l=0.15
X217 VPWR.t83 VGND.t3273 VPWR.t82 VPWR.t81 sky130_fd_pr__pfet_01v8_hvt ad=0.226 pd=2.26 as=0 ps=0 w=0.87 l=4.73
X218 a_5691_7637# net51 VGND.t432 VGND.t431 sky130_fd_pr__nfet_01v8 ad=0.0878 pd=0.92 as=0.0878 ps=0.92 w=0.65 l=0.15
X219 a_14335_2442# _108_ VGND.t753 VGND.t752 sky130_fd_pr__nfet_01v8 ad=0.135 pd=1.56 as=0.0754 ps=0.81 w=0.52 l=0.15
X220 VPWR.t1956 _045_ a_6191_12559# VPWR.t1955 sky130_fd_pr__pfet_01v8_hvt ad=0.115 pd=1.08 as=0.205 ps=2.1 w=0.79 l=0.15
X221 VGND.t2775 a_8298_2767# clknet_2_2__leaf_clk VGND.t2774 sky130_fd_pr__nfet_01v8 ad=0.0588 pd=0.7 as=0.0588 ps=0.7 w=0.42 l=0.15
X222 VGND.t738 a_14981_4020# net31 VGND.t737 sky130_fd_pr__nfet_01v8 ad=0.0754 pd=0.81 as=0.135 ps=1.56 w=0.52 l=0.15
X223 VPWR.t1537 clknet_2_3__leaf_clk a_11987_8757# VPWR.t1536 sky130_fd_pr__pfet_01v8_hvt ad=0.0864 pd=0.91 as=0.166 ps=1.8 w=0.64 l=0.15
X224 a_1129_9813# a_911_10217# VPWR.t2876 VPWR.t2875 sky130_fd_pr__pfet_01v8_hvt ad=0.129 pd=1.18 as=0.218 ps=2.2 w=0.84 l=0.15
X225 net26 a_7723_10143# VGND.t317 VGND.t316 sky130_fd_pr__nfet_01v8 ad=0.169 pd=1.82 as=0.209 ps=2.02 w=0.65 l=0.15
X226 a_13607_1513# a_13257_1141# a_13512_1501# VPWR.t2185 sky130_fd_pr__pfet_01v8_hvt ad=0.0724 pd=0.765 as=0.0651 ps=0.73 w=0.42 l=0.15
X227 VPWR.t86 VGND.t3274 VPWR.t85 VPWR.t84 sky130_fd_pr__pfet_01v8_hvt ad=0.226 pd=2.26 as=0 ps=0 w=0.87 l=0.59
X228 clknet_2_1__leaf_clk.t14 a_2857_7637# VPWR.t914 VPWR.t913 sky130_fd_pr__pfet_01v8_hvt ad=0.14 pd=1.28 as=0.14 ps=1.28 w=1 l=0.15
X229 a_11679_4777# a_11233_4405# a_11583_4777# VGND.t3006 sky130_fd_pr__nfet_01v8 ad=0.14 pd=1.1 as=0.0594 ps=0.69 w=0.36 l=0.15
X230 a_11479_9117# _122_ a_11116_8983# VGND.t550 sky130_fd_pr__nfet_01v8 ad=0.0693 pd=0.75 as=0.0997 ps=0.895 w=0.42 l=0.15
X231 cal_count\[3\] a_12231_6005# VPWR.t1236 VPWR.t1235 sky130_fd_pr__pfet_01v8_hvt ad=0.26 pd=2.52 as=0.301 ps=2.66 w=1 l=0.15
X232 VGND.t451 a_12599_3615# a_12533_3689# VGND.t450 sky130_fd_pr__nfet_01v8 ad=0.125 pd=1.01 as=0.0669 ps=0.75 w=0.42 l=0.15
X233 a_11244_9661# a_10405_9295# a_11268_9295# VGND.t2591 sky130_fd_pr__nfet_01v8 ad=0.0693 pd=0.75 as=0.0441 ps=0.63 w=0.42 l=0.15
X234 VPWR.t89 VGND.t3275 VPWR.t88 VPWR.t87 sky130_fd_pr__pfet_01v8_hvt ad=0.226 pd=2.26 as=0 ps=0 w=0.87 l=2.89
X235 _044_ a_8072_11721# VPWR.t2578 VPWR.t2577 sky130_fd_pr__pfet_01v8_hvt ad=0.34 pd=2.68 as=0.146 ps=1.34 w=1 l=0.15
X236 a_845_7663# _080_ _005_ VPWR.t2574 sky130_fd_pr__pfet_01v8_hvt ad=0.105 pd=1.21 as=0.26 ps=2.52 w=1 l=0.15
X237 a_3388_4631# _048_.t14 a_3530_4438# VPWR.t2102 sky130_fd_pr__pfet_01v8_hvt ad=0.193 pd=1.34 as=0.0767 ps=0.785 w=0.42 l=0.15
X238 a_8298_5487# clknet_0_clk VGND.t216 VGND.t215 sky130_fd_pr__nfet_01v8 ad=0.0588 pd=0.7 as=0.111 ps=1.37 w=0.42 l=0.15
X239 trimb[4].t6 a_15023_8751# VGND.t2626 VGND.t2625 sky130_fd_pr__nfet_01v8 ad=0.0588 pd=0.7 as=0.0703 ps=0.755 w=0.42 l=0.15
X240 a_8307_4719# _103_ VGND.t2906 VGND.t2905 sky130_fd_pr__nfet_01v8 ad=0.0878 pd=0.92 as=0.0878 ps=0.92 w=0.65 l=0.15
X241 a_2689_8751# net24 _081_ VPWR.t2922 sky130_fd_pr__pfet_01v8_hvt ad=0.14 pd=1.28 as=0.265 ps=2.53 w=1 l=0.15