* SPICE3 file created from dac_flat.ext - technology: sky130B

.subckt dac ctl_4_ ctl_3_ ctl_2_ ctl_0_ dum ctl_5_ ctl_7_ ctl_6_ vin vdd sample
+ ctl_1_ out vss
X0 ctl_6_.t3 sky130_fd_sc_hd__inv_2_0.A vss.t48 vss.t47 sky130_fd_pr__nfet_01v8 ad=0.0878 pd=0.92 as=0.169 ps=1.82 w=0.65 l=0.15
X1 out.t29 sw_top_3.en_buf vin.t24 vdd.t65 sky130_fd_pr__pfet_01v8 ad=0.145 pd=1.29 as=0.145 ps=1.29 w=1 l=0.3
X2 out.t80 sky130_fd_sc_hd__inv_2_0.A sky130_fd_pr__cap_mim_m3_1 l=2 w=2
X3 ctl_2_.t3 sky130_fd_sc_hd__inv_2_6.A vss.t3 vss.t2 sky130_fd_pr__nfet_01v8 ad=0.0878 pd=0.92 as=0.169 ps=1.82 w=0.65 l=0.15
X4 out.t81 sky130_fd_sc_hd__inv_2_0.A sky130_fd_pr__cap_mim_m3_1 l=2 w=2
X5 out.t82 sky130_fd_sc_hd__inv_2_9.A sky130_fd_pr__cap_mim_m3_1 l=2 w=2
X6 out.t83 sky130_fd_sc_hd__inv_2_9.A sky130_fd_pr__cap_mim_m3_1 l=2 w=2
X7 vss.t17 sample.t0 sw_top_2.en_buf vss.t16 sky130_fd_pr__nfet_01v8 ad=0.0878 pd=0.92 as=0.0878 ps=0.92 w=0.65 l=0.15
X8 out.t84 sky130_fd_sc_hd__inv_2_5.A sky130_fd_pr__cap_mim_m3_1 l=2 w=2
X9 vss.t111 vdd.t146 vss.t110 vss.t109 sky130_fd_pr__nfet_01v8 ad=0.143 pd=1.62 as=0 ps=0 w=0.55 l=0.59
X10 out.t49 sw_top_2.net1 vin.t40 vss.t121 sky130_fd_pr__nfet_01v8 ad=0.145 pd=1.29 as=0.145 ps=1.29 w=1 l=0.3
X11 out.t85 sky130_fd_sc_hd__inv_2_5.A sky130_fd_pr__cap_mim_m3_1 l=2 w=2
X12 out.t86 sky130_fd_sc_hd__inv_2_9.A sky130_fd_pr__cap_mim_m3_1 l=2 w=2
X13 out.t87 carray_0.unitcap_39.cn sky130_fd_pr__cap_mim_m3_1 l=2 w=2
X14 out.t88 carray_0.unitcap_80.cn sky130_fd_pr__cap_mim_m3_1 l=2 w=2
X15 vin.t19 sw_top_2.en_buf out.t19 vdd.t45 sky130_fd_pr__pfet_01v8 ad=0.145 pd=1.29 as=0.145 ps=1.29 w=1 l=0.3
X16 out.t89 sky130_fd_sc_hd__inv_2_9.A sky130_fd_pr__cap_mim_m3_1 l=2 w=2
X17 out.t90 sky130_fd_sc_hd__inv_2_7.A sky130_fd_pr__cap_mim_m3_1 l=2 w=2
X18 out.t18 sw_top_2.en_buf vin.t12 vdd.t44 sky130_fd_pr__pfet_01v8 ad=0.145 pd=1.29 as=0.145 ps=1.29 w=1 l=0.3
X19 out.t91 carray_0.unitcap_247.cn sky130_fd_pr__cap_mim_m3_1 l=2 w=2
X20 out.t92 carray_0.unitcap_119.cn sky130_fd_pr__cap_mim_m3_1 l=2 w=2
X21 sw_top_1.en_buf sample.t1 vss.t19 vss.t18 sky130_fd_pr__nfet_01v8 ad=0.0878 pd=0.92 as=0.0878 ps=0.92 w=0.65 l=0.15
X22 out.t93 carray_0.unitcap_144.cn sky130_fd_pr__cap_mim_m3_1 l=2 w=2
X23 out.t94 carray_0.unitcap_320.cn sky130_fd_pr__cap_mim_m3_1 l=2 w=2
X24 out.t95 sky130_fd_sc_hd__inv_2_0.A sky130_fd_pr__cap_mim_m3_1 l=2 w=2
X25 vss.t21 sky130_fd_sc_hd__inv_2_9.A.t2 ctl_7_.t3 vss.t20 sky130_fd_pr__nfet_01v8 ad=0.169 pd=1.82 as=0.0878 ps=0.92 w=0.65 l=0.15
X26 out.t96 sky130_fd_sc_hd__inv_2_9.A sky130_fd_pr__cap_mim_m3_1 l=2 w=2
X27 vss.t7 sky130_fd_sc_hd__inv_2_7.A ctl_3_.t3 vss.t6 sky130_fd_pr__nfet_01v8 ad=0.169 pd=1.82 as=0.0878 ps=0.92 w=0.65 l=0.15
X28 sw_top_0.net1 sw_top_0.en_buf vdd.t21 vdd.t20 sky130_fd_pr__pfet_01v8_hvt ad=0.135 pd=1.27 as=0.26 ps=2.52 w=1 l=0.15
X29 out.t39 sw_top_1.net1 vin.t39 vss.t108 sky130_fd_pr__nfet_01v8 ad=0.145 pd=1.29 as=0.145 ps=1.29 w=1 l=0.3
X30 out.t97 sky130_fd_sc_hd__inv_2_0.A sky130_fd_pr__cap_mim_m3_1 l=2 w=2
X31 out.t98 sky130_fd_sc_hd__inv_2_9.A sky130_fd_pr__cap_mim_m3_1 l=2 w=2
X32 out.t99 sky130_fd_sc_hd__inv_2_9.A sky130_fd_pr__cap_mim_m3_1 l=2 w=2
X33 out.t100 sky130_fd_sc_hd__inv_2_0.A sky130_fd_pr__cap_mim_m3_1 l=2 w=2
X34 vin.t76 sw_top_1.en_buf out.t79 vdd.t141 sky130_fd_pr__pfet_01v8 ad=0.145 pd=1.29 as=0.145 ps=1.29 w=1 l=0.3
X35 vss.t161 sky130_fd_sc_hd__inv_2_4.A ctl_4_.t3 vss.t160 sky130_fd_pr__nfet_01v8 ad=0.169 pd=1.82 as=0.0878 ps=0.92 w=0.65 l=0.15
X36 out.t101 sky130_fd_sc_hd__inv_2_9.A sky130_fd_pr__cap_mim_m3_1 l=2 w=2
X37 sw_top_1.net1 sw_top_1.en_buf vss.t157 vss.t156 sky130_fd_pr__nfet_01v8 ad=0.0878 pd=0.92 as=0.0878 ps=0.92 w=0.65 l=0.15
X38 sw_top_2.en_buf sample.t2 vdd.t87 vdd.t86 sky130_fd_pr__pfet_01v8_hvt ad=0.135 pd=1.27 as=0.135 ps=1.27 w=1 l=0.15
X39 vss.t85 sample.t3 sw_top_0.en_buf vss.t84 sky130_fd_pr__nfet_01v8 ad=0.0878 pd=0.92 as=0.0878 ps=0.92 w=0.65 l=0.15
X40 vss.t149 sky130_fd_sc_hd__inv_2_2.A dum.t3 vss.t148 sky130_fd_pr__nfet_01v8 ad=0.169 pd=1.82 as=0.0878 ps=0.92 w=0.65 l=0.15
X41 out.t102 sky130_fd_sc_hd__inv_2_5.A sky130_fd_pr__cap_mim_m3_1 l=2 w=2
X42 out.t103 sky130_fd_sc_hd__inv_2_9.A sky130_fd_pr__cap_mim_m3_1 l=2 w=2
X43 out.t104 sky130_fd_sc_hd__inv_2_4.A sky130_fd_pr__cap_mim_m3_1 l=2 w=2
X44 out.t105 sky130_fd_sc_hd__inv_2_9.A sky130_fd_pr__cap_mim_m3_1 l=2 w=2
X45 out.t106 sky130_fd_sc_hd__inv_2_9.A sky130_fd_pr__cap_mim_m3_1 l=2 w=2
X46 out.t107 sky130_fd_sc_hd__inv_2_5.A sky130_fd_pr__cap_mim_m3_1 l=2 w=2
X47 out.t108 sky130_fd_sc_hd__inv_2_9.A sky130_fd_pr__cap_mim_m3_1 l=2 w=2
X48 vin.t66 sw_top_3.net1 out.t69 vss.t141 sky130_fd_pr__nfet_01v8 ad=0.29 pd=2.58 as=0.145 ps=1.29 w=1 l=0.3
X49 out.t109 sky130_fd_sc_hd__inv_2_9.A sky130_fd_pr__cap_mim_m3_1 l=2 w=2
X50 vss.t56 sw_top_3.en_buf sw_top_3.net1 vss.t55 sky130_fd_pr__nfet_01v8 ad=0.0878 pd=0.92 as=0.0878 ps=0.92 w=0.65 l=0.15
X51 out.t110 carray_0.unitcap_12.cn sky130_fd_pr__cap_mim_m3_1 l=2 w=2
X52 vin.t53 sw_top_0.net1 out.t59 vss.t131 sky130_fd_pr__nfet_01v8 ad=0.145 pd=1.29 as=0.145 ps=1.29 w=1 l=0.3
X53 ctl_3_.t2 sky130_fd_sc_hd__inv_2_7.A vss.t5 vss.t4 sky130_fd_pr__nfet_01v8 ad=0.0878 pd=0.92 as=0.169 ps=1.82 w=0.65 l=0.15
X54 vss.t15 sw_top_0.en_buf sw_top_0.net1 vss.t14 sky130_fd_pr__nfet_01v8 ad=0.169 pd=1.82 as=0.0878 ps=0.92 w=0.65 l=0.15
X55 ctl_1_.t3 sky130_fd_sc_hd__inv_2_3.A vss.t98 vss.t97 sky130_fd_pr__nfet_01v8 ad=0.0878 pd=0.92 as=0.169 ps=1.82 w=0.65 l=0.15
X56 out.t111 sky130_fd_sc_hd__inv_2_4.A sky130_fd_pr__cap_mim_m3_1 l=2 w=2
X57 out.t112 sky130_fd_sc_hd__inv_2_9.A.t1 sky130_fd_pr__cap_mim_m3_1 l=2 w=2
X58 out.t113 sky130_fd_sc_hd__inv_2_0.A sky130_fd_pr__cap_mim_m3_1 l=2 w=2
X59 out.t114 carray_0.unitcap_95.cn sky130_fd_pr__cap_mim_m3_1 l=2 w=2
X60 out.t115 sky130_fd_sc_hd__inv_2_3.A sky130_fd_pr__cap_mim_m3_1 l=2 w=2
X61 out.t116 sky130_fd_sc_hd__inv_2_0.A sky130_fd_pr__cap_mim_m3_1 l=2 w=2
X62 out.t117 carray_0.unitcap_183.cn sky130_fd_pr__cap_mim_m3_1 l=2 w=2
X63 sw_top_2.net1 sw_top_2.en_buf vss.t44 vss.t43 sky130_fd_pr__nfet_01v8 ad=0.0878 pd=0.92 as=0.0878 ps=0.92 w=0.65 l=0.15
X64 out.t118 carray_0.unitcap_40.cn sky130_fd_pr__cap_mim_m3_1 l=2 w=2
X65 out.t119 sky130_fd_sc_hd__inv_2_0.A sky130_fd_pr__cap_mim_m3_1 l=2 w=2
X66 vss.t24 vdd.t147 vss.t23 vss.t22 sky130_fd_pr__nfet_01v8 ad=0.143 pd=1.62 as=0 ps=0 w=0.55 l=0.59
X67 out.t120 sky130_fd_sc_hd__inv_2_9.A sky130_fd_pr__cap_mim_m3_1 l=2 w=2
X68 out.t38 sw_top_1.net1 vin.t38 vss.t107 sky130_fd_pr__nfet_01v8 ad=0.145 pd=1.29 as=0.29 ps=2.58 w=1 l=0.3
X69 out.t121 sky130_fd_sc_hd__inv_2_5.A sky130_fd_pr__cap_mim_m3_1 l=2 w=2
X70 out.t122 carray_0.unitcap_216.cn sky130_fd_pr__cap_mim_m3_1 l=2 w=2
X71 out.t123 sky130_fd_sc_hd__inv_2_9.A sky130_fd_pr__cap_mim_m3_1 l=2 w=2
X72 out.t124 sky130_fd_sc_hd__inv_2_9.A sky130_fd_pr__cap_mim_m3_1 l=2 w=2
X73 out.t125 carray_0.unitcap_120.cn sky130_fd_pr__cap_mim_m3_1 l=2 w=2
X74 out.t126 sky130_fd_sc_hd__inv_2_9.A sky130_fd_pr__cap_mim_m3_1 l=2 w=2
X75 vdd.t117 vss.t164 vdd.t116 vdd.t115 sky130_fd_pr__pfet_01v8_hvt ad=0.226 pd=2.26 as=0 ps=0 w=0.87 l=2.89
X76 sw_top_1.net1 sw_top_1.en_buf vss.t155 vss.t154 sky130_fd_pr__nfet_01v8 ad=0.0878 pd=0.92 as=0.169 ps=1.82 w=0.65 l=0.15
X77 out.t127 sky130_fd_sc_hd__inv_2_7.A sky130_fd_pr__cap_mim_m3_1 l=2 w=2
X78 vin.t65 sw_top_3.net1 out.t68 vss.t140 sky130_fd_pr__nfet_01v8 ad=0.145 pd=1.29 as=0.145 ps=1.29 w=1 l=0.3
X79 out.t128 carray_0.unitcap_322.cn sky130_fd_pr__cap_mim_m3_1 l=2 w=2
X80 out.t129 sky130_fd_sc_hd__inv_2_0.A sky130_fd_pr__cap_mim_m3_1 l=2 w=2
X81 out.t130 sky130_fd_sc_hd__inv_2_0.A sky130_fd_pr__cap_mim_m3_1 l=2 w=2
X82 out.t131 sky130_fd_sc_hd__inv_2_9.A sky130_fd_pr__cap_mim_m3_1 l=2 w=2
X83 out.t132 sky130_fd_sc_hd__inv_2_0.A sky130_fd_pr__cap_mim_m3_1 l=2 w=2
X84 out.t28 sw_top_3.en_buf vin.t23 vdd.t64 sky130_fd_pr__pfet_01v8 ad=0.145 pd=1.29 as=0.29 ps=2.58 w=1 l=0.3
X85 vin.t79 sw_top_1.en_buf out.t78 vdd.t140 sky130_fd_pr__pfet_01v8 ad=0.29 pd=2.58 as=0.145 ps=1.29 w=1 l=0.3
X86 vin.t22 sw_top_3.en_buf out.t27 vdd.t63 sky130_fd_pr__pfet_01v8 ad=0.145 pd=1.29 as=0.145 ps=1.29 w=1 l=0.3
X87 out.t133 sky130_fd_sc_hd__inv_2_0.A sky130_fd_pr__cap_mim_m3_1 l=2 w=2
X88 out.t134 sky130_fd_sc_hd__inv_2_9.A sky130_fd_pr__cap_mim_m3_1 l=2 w=2
X89 vss.t13 sw_top_0.en_buf sw_top_0.net1 vss.t12 sky130_fd_pr__nfet_01v8 ad=0.0878 pd=0.92 as=0.0878 ps=0.92 w=0.65 l=0.15
X90 vin.t2 sw_top_0.en_buf out.t9 vdd.t19 sky130_fd_pr__pfet_01v8 ad=0.145 pd=1.29 as=0.145 ps=1.29 w=1 l=0.3
X91 out.t135 sky130_fd_sc_hd__inv_2_9.A sky130_fd_pr__cap_mim_m3_1 l=2 w=2
X92 out.t136 sky130_fd_sc_hd__inv_2_0.A sky130_fd_pr__cap_mim_m3_1 l=2 w=2
X93 vdd.t43 sw_top_2.en_buf sw_top_2.net1 vdd.t42 sky130_fd_pr__pfet_01v8_hvt ad=0.26 pd=2.52 as=0.135 ps=1.27 w=1 l=0.15
X94 out.t137 sky130_fd_sc_hd__inv_2_9.A sky130_fd_pr__cap_mim_m3_1 l=2 w=2
X95 out.t48 sw_top_2.net1 vin.t46 vss.t120 sky130_fd_pr__nfet_01v8 ad=0.145 pd=1.29 as=0.29 ps=2.58 w=1 l=0.3
X96 vin.t52 sw_top_0.net1 out.t58 vss.t130 sky130_fd_pr__nfet_01v8 ad=0.29 pd=2.58 as=0.145 ps=1.29 w=1 l=0.3
X97 out.t8 sw_top_0.en_buf vin.t1 vdd.t18 sky130_fd_pr__pfet_01v8 ad=0.145 pd=1.29 as=0.145 ps=1.29 w=1 l=0.3
X98 vdd.t83 sample.t4 sw_top_1.en_buf vdd.t82 sky130_fd_pr__pfet_01v8_hvt ad=0.135 pd=1.27 as=0.135 ps=1.27 w=1 l=0.15
X99 out.t138 sky130_fd_sc_hd__inv_2_5.A sky130_fd_pr__cap_mim_m3_1 l=2 w=2
X100 vin.t45 sw_top_2.net1 out.t47 vss.t119 sky130_fd_pr__nfet_01v8 ad=0.145 pd=1.29 as=0.145 ps=1.29 w=1 l=0.3
X101 out.t139 carray_0.unitcap_64.cn sky130_fd_pr__cap_mim_m3_1 l=2 w=2
X102 out.t140 sky130_fd_sc_hd__inv_2_4.A sky130_fd_pr__cap_mim_m3_1 l=2 w=2
X103 out.t141 sky130_fd_sc_hd__inv_2_9.A sky130_fd_pr__cap_mim_m3_1 l=2 w=2
X104 out.t142 carray_0.unitcap_63.cn sky130_fd_pr__cap_mim_m3_1 l=2 w=2
X105 out.t143 sky130_fd_sc_hd__inv_2_5.A sky130_fd_pr__cap_mim_m3_1 l=2 w=2
X106 out.t144 sky130_fd_sc_hd__inv_2_9.A sky130_fd_pr__cap_mim_m3_1 l=2 w=2
X107 sw_top_2.net1 sw_top_2.en_buf vss.t42 vss.t41 sky130_fd_pr__nfet_01v8 ad=0.0878 pd=0.92 as=0.169 ps=1.82 w=0.65 l=0.15
X108 out.t17 sw_top_2.en_buf vin.t11 vdd.t41 sky130_fd_pr__pfet_01v8 ad=0.145 pd=1.29 as=0.145 ps=1.29 w=1 l=0.3
X109 out.t145 sky130_fd_sc_hd__inv_2_9.A sky130_fd_pr__cap_mim_m3_1 l=2 w=2
X110 out.t146 carray_0.unitcap_15.cn sky130_fd_pr__cap_mim_m3_1 l=2 w=2
X111 out.t147 carray_0.unitcap_239.cn sky130_fd_pr__cap_mim_m3_1 l=2 w=2
X112 out.t148 carray_0.unitcap_143.cn sky130_fd_pr__cap_mim_m3_1 l=2 w=2
X113 sw_top_0.en_buf sample.t5 vdd.t85 vdd.t84 sky130_fd_pr__pfet_01v8_hvt ad=0.135 pd=1.27 as=0.26 ps=2.52 w=1 l=0.15
X114 out.t149 carray_0.unitcap_160.cn sky130_fd_pr__cap_mim_m3_1 l=2 w=2
X115 out.t150 sky130_fd_sc_hd__inv_2_6.A sky130_fd_pr__cap_mim_m3_1 l=2 w=2
X116 out.t151 sky130_fd_sc_hd__inv_2_0.A sky130_fd_pr__cap_mim_m3_1 l=2 w=2
X117 out.t37 sw_top_1.net1 vin.t37 vss.t106 sky130_fd_pr__nfet_01v8 ad=0.145 pd=1.29 as=0.145 ps=1.29 w=1 l=0.3
X118 vdd.t114 vss.t165 vdd.t113 vdd.t112 sky130_fd_pr__pfet_01v8_hvt ad=0.226 pd=2.26 as=0 ps=0 w=0.87 l=0.59
X119 out.t152 sky130_fd_sc_hd__inv_2_9.A sky130_fd_pr__cap_mim_m3_1 l=2 w=2
X120 out.t153 sky130_fd_sc_hd__inv_2_9.A sky130_fd_pr__cap_mim_m3_1 l=2 w=2
X121 out.t154 sky130_fd_sc_hd__inv_2_0.A sky130_fd_pr__cap_mim_m3_1 l=2 w=2
X122 out.t155 sky130_fd_sc_hd__inv_2_9.A sky130_fd_pr__cap_mim_m3_1 l=2 w=2
X123 out.t156 carray_0.unitcap_9.cn sky130_fd_pr__cap_mim_m3_1 l=2 w=2
X124 vin.t64 sw_top_3.net1 out.t67 vss.t139 sky130_fd_pr__nfet_01v8 ad=0.145 pd=1.29 as=0.145 ps=1.29 w=1 l=0.3
X125 sw_top_0.net1 sw_top_0.en_buf vdd.t17 vdd.t16 sky130_fd_pr__pfet_01v8_hvt ad=0.135 pd=1.27 as=0.135 ps=1.27 w=1 l=0.15
X126 vss.t73 sample.t6 sw_top_3.en_buf vss.t72 sky130_fd_pr__nfet_01v8 ad=0.169 pd=1.82 as=0.0878 ps=0.92 w=0.65 l=0.15
X127 out.t157 sky130_fd_sc_hd__inv_2_5.A sky130_fd_pr__cap_mim_m3_1 l=2 w=2
X128 out.t158 sky130_fd_sc_hd__inv_2_4.A sky130_fd_pr__cap_mim_m3_1 l=2 w=2
X129 out.t159 sky130_fd_sc_hd__inv_2_5.A sky130_fd_pr__cap_mim_m3_1 l=2 w=2
X130 out.t160 sky130_fd_sc_hd__inv_2_9.A sky130_fd_pr__cap_mim_m3_1 l=2 w=2
X131 out.t161 sky130_fd_sc_hd__inv_2_9.A sky130_fd_pr__cap_mim_m3_1 l=2 w=2
X132 out.t66 sw_top_3.net1 vin.t62 vss.t138 sky130_fd_pr__nfet_01v8 ad=0.145 pd=1.29 as=0.145 ps=1.29 w=1 l=0.3
X133 out.t162 sky130_fd_sc_hd__inv_2_9.A sky130_fd_pr__cap_mim_m3_1 l=2 w=2
X134 out.t163 sky130_fd_sc_hd__inv_2_9.A sky130_fd_pr__cap_mim_m3_1 l=2 w=2
X135 out.t164 sky130_fd_sc_hd__inv_2_9.A sky130_fd_pr__cap_mim_m3_1 l=2 w=2
X136 vdd.t40 sw_top_2.en_buf sw_top_2.net1 vdd.t39 sky130_fd_pr__pfet_01v8_hvt ad=0.135 pd=1.27 as=0.135 ps=1.27 w=1 l=0.15
X137 sw_top_1.en_buf sample.t7 vdd.t80 vdd.t79 sky130_fd_pr__pfet_01v8_hvt ad=0.135 pd=1.27 as=0.26 ps=2.52 w=1 l=0.15
X138 out.t165 sky130_fd_sc_hd__inv_2_7.A sky130_fd_pr__cap_mim_m3_1 l=2 w=2
X139 out.t166 sky130_fd_sc_hd__inv_2_0.A sky130_fd_pr__cap_mim_m3_1 l=2 w=2
X140 out.t167 carray_0.unitcap_326.cn sky130_fd_pr__cap_mim_m3_1 l=2 w=2
X141 vss.t27 vdd.t148 vss.t26 vss.t25 sky130_fd_pr__nfet_01v8 ad=0.143 pd=1.62 as=0 ps=0 w=0.55 l=2.89
X142 out.t168 sky130_fd_sc_hd__inv_2_0.A sky130_fd_pr__cap_mim_m3_1 l=2 w=2
X143 out.t169 sky130_fd_sc_hd__inv_2_0.A sky130_fd_pr__cap_mim_m3_1 l=2 w=2
X144 out.t170 sky130_fd_sc_hd__inv_2_9.A sky130_fd_pr__cap_mim_m3_1 l=2 w=2
X145 ctl_7_.t1 sky130_fd_sc_hd__inv_2_9.A.t3 vdd.t81 sky130_fd_sc_hd__inv_2_2.VPB sky130_fd_pr__pfet_01v8_hvt ad=0.135 pd=1.27 as=0.26 ps=2.52 w=1 l=0.15
X146 vdd.t92 sky130_fd_sc_hd__inv_2_5.A.t1 ctl_5_.t1 sky130_fd_sc_hd__inv_2_2.VPB sky130_fd_pr__pfet_01v8_hvt ad=0.26 pd=2.52 as=0.135 ps=1.27 w=1 l=0.15
X147 out.t171 carray_0.unitcap_32.cn sky130_fd_pr__cap_mim_m3_1 l=2 w=2
X148 out.t172 sky130_fd_sc_hd__inv_2_0.A sky130_fd_pr__cap_mim_m3_1 l=2 w=2
X149 out.t173 carray_0.unitcap_23.cn sky130_fd_pr__cap_mim_m3_1 l=2 w=2
X150 out.t174 sky130_fd_sc_hd__inv_2_9.A sky130_fd_pr__cap_mim_m3_1 l=2 w=2
X151 out.t175 sky130_fd_sc_hd__inv_2_0.A sky130_fd_pr__cap_mim_m3_1 l=2 w=2
X152 ctl_4_.t1 sky130_fd_sc_hd__inv_2_4.A vdd.t143 sky130_fd_sc_hd__inv_2_2.VPB sky130_fd_pr__pfet_01v8_hvt ad=0.135 pd=1.27 as=0.26 ps=2.52 w=1 l=0.15
X153 out.t176 carray_0.unitcap_240.cn sky130_fd_pr__cap_mim_m3_1 l=2 w=2
X154 out.t177 carray_0.unitcap_191.cn sky130_fd_pr__cap_mim_m3_1 l=2 w=2
X155 dum.t1 sky130_fd_sc_hd__inv_2_2.A vdd.t123 sky130_fd_sc_hd__inv_2_2.VPB sky130_fd_pr__pfet_01v8_hvt ad=0.135 pd=1.27 as=0.26 ps=2.52 w=1 l=0.15
X156 out.t178 sky130_fd_sc_hd__inv_2_9.A sky130_fd_pr__cap_mim_m3_1 l=2 w=2
X157 out.t179 carray_0.unitcap_112.cn sky130_fd_pr__cap_mim_m3_1 l=2 w=2
X158 out.t180 sky130_fd_sc_hd__inv_2_5.A sky130_fd_pr__cap_mim_m3_1 l=2 w=2
X159 out.t181 sky130_fd_sc_hd__inv_2_9.A sky130_fd_pr__cap_mim_m3_1 l=2 w=2
X160 out.t182 sky130_fd_sc_hd__inv_2_9.A sky130_fd_pr__cap_mim_m3_1 l=2 w=2
X161 out.t36 sw_top_1.net1 vin.t36 vss.t105 sky130_fd_pr__nfet_01v8 ad=0.145 pd=1.29 as=0.145 ps=1.29 w=1 l=0.3
X162 vss.t30 vdd.t149 vss.t29 vss.t28 sky130_fd_pr__nfet_01v8 ad=0.143 pd=1.62 as=0 ps=0 w=0.55 l=2.89
X163 vin.t78 sw_top_1.en_buf out.t77 vdd.t139 sky130_fd_pr__pfet_01v8 ad=0.145 pd=1.29 as=0.145 ps=1.29 w=1 l=0.3
X164 vdd.t78 sky130_fd_sc_hd__inv_2_8.A ctl_0_.t1 sky130_fd_sc_hd__inv_2_2.VPB sky130_fd_pr__pfet_01v8_hvt ad=0.26 pd=2.52 as=0.135 ps=1.27 w=1 l=0.15
X165 vin.t35 sw_top_1.net1 out.t35 vss.t104 sky130_fd_pr__nfet_01v8 ad=0.145 pd=1.29 as=0.145 ps=1.29 w=1 l=0.3
X166 vdd.t111 vss.t166 vdd.t110 vdd.t109 sky130_fd_pr__pfet_01v8_hvt ad=0.226 pd=2.26 as=0 ps=0 w=0.87 l=0.59
X167 vss.t143 sample.t8 sw_top_3.en_buf vss.t142 sky130_fd_pr__nfet_01v8 ad=0.0878 pd=0.92 as=0.0878 ps=0.92 w=0.65 l=0.15
X168 out.t183 sky130_fd_sc_hd__inv_2_0.A sky130_fd_pr__cap_mim_m3_1 l=2 w=2
X169 out.t184 sky130_fd_sc_hd__inv_2_9.A sky130_fd_pr__cap_mim_m3_1 l=2 w=2
X170 out.t185 sky130_fd_sc_hd__inv_2_6.A sky130_fd_pr__cap_mim_m3_1 l=2 w=2
X171 ctl_5_.t0 sky130_fd_sc_hd__inv_2_5.A.t2 vdd.t93 sky130_fd_sc_hd__inv_2_2.VPB sky130_fd_pr__pfet_01v8_hvt ad=0.135 pd=1.27 as=0.26 ps=2.52 w=1 l=0.15
X172 out.t186 sky130_fd_sc_hd__inv_2_0.A sky130_fd_pr__cap_mim_m3_1 l=2 w=2
X173 vin.t59 sw_top_0.net1 out.t57 vss.t129 sky130_fd_pr__nfet_01v8 ad=0.145 pd=1.29 as=0.145 ps=1.29 w=1 l=0.3
X174 out.t187 sky130_fd_sc_hd__inv_2_5.A sky130_fd_pr__cap_mim_m3_1 l=2 w=2
X175 out.t188 sky130_fd_sc_hd__inv_2_9.A sky130_fd_pr__cap_mim_m3_1 l=2 w=2
X176 out.t189 sky130_fd_sc_hd__inv_2_0.A sky130_fd_pr__cap_mim_m3_1 l=2 w=2
X177 vss.t145 sample.t9 sw_top_0.en_buf vss.t144 sky130_fd_pr__nfet_01v8 ad=0.169 pd=1.82 as=0.0878 ps=0.92 w=0.65 l=0.15
X178 out.t65 sw_top_3.net1 vin.t61 vss.t137 sky130_fd_pr__nfet_01v8 ad=0.145 pd=1.29 as=0.145 ps=1.29 w=1 l=0.3
X179 out.t190 sky130_fd_sc_hd__inv_2_9.A sky130_fd_pr__cap_mim_m3_1 l=2 w=2
X180 out.t191 sky130_fd_sc_hd__inv_2_9.A sky130_fd_pr__cap_mim_m3_1 l=2 w=2
X181 out.t192 carray_0.unitcap_288.cn sky130_fd_pr__cap_mim_m3_1 l=2 w=2
X182 vin.t0 sw_top_0.en_buf out.t7 vdd.t15 sky130_fd_pr__pfet_01v8 ad=0.145 pd=1.29 as=0.145 ps=1.29 w=1 l=0.3
X183 out.t193 sky130_fd_sc_hd__inv_2_5.A sky130_fd_pr__cap_mim_m3_1 l=2 w=2
X184 out.t194 sky130_fd_sc_hd__inv_2_4.A sky130_fd_pr__cap_mim_m3_1 l=2 w=2
X185 out.t26 sw_top_3.en_buf vin.t21 vdd.t62 sky130_fd_pr__pfet_01v8 ad=0.145 pd=1.29 as=0.145 ps=1.29 w=1 l=0.3
X186 out.t195 carray_0.unitcap_88.cn sky130_fd_pr__cap_mim_m3_1 l=2 w=2
X187 out.t196 sky130_fd_sc_hd__inv_2_9.A sky130_fd_pr__cap_mim_m3_1 l=2 w=2
X188 out.t197 sky130_fd_sc_hd__inv_2_5.A sky130_fd_pr__cap_mim_m3_1 l=2 w=2
X189 out.t198 sky130_fd_sc_hd__inv_2_9.A sky130_fd_pr__cap_mim_m3_1 l=2 w=2
X190 out.t199 sky130_fd_sc_hd__inv_2_9.A sky130_fd_pr__cap_mim_m3_1 l=2 w=2
X191 out.t6 sw_top_0.en_buf vin.t8 vdd.t14 sky130_fd_pr__pfet_01v8 ad=0.145 pd=1.29 as=0.145 ps=1.29 w=1 l=0.3
X192 out.t200 sky130_fd_sc_hd__inv_2_9.A sky130_fd_pr__cap_mim_m3_1 l=2 w=2
X193 vin.t44 sw_top_2.net1 out.t46 vss.t118 sky130_fd_pr__nfet_01v8 ad=0.145 pd=1.29 as=0.145 ps=1.29 w=1 l=0.3
X194 vdd.t74 sample.t10 sw_top_1.en_buf vdd.t73 sky130_fd_pr__pfet_01v8_hvt ad=0.26 pd=2.52 as=0.135 ps=1.27 w=1 l=0.15
X195 out.t201 carray_0.unitcap_255.cn sky130_fd_pr__cap_mim_m3_1 l=2 w=2
X196 out.t202 carray_0.unitcap_176.cn sky130_fd_pr__cap_mim_m3_1 l=2 w=2
X197 out.t203 carray_0.unitcap_331.cn sky130_fd_pr__cap_mim_m3_1 l=2 w=2
X198 out.t45 sw_top_2.net1 vin.t43 vss.t117 sky130_fd_pr__nfet_01v8 ad=0.145 pd=1.29 as=0.145 ps=1.29 w=1 l=0.3
X199 out.t204 sky130_fd_sc_hd__inv_2_0.A sky130_fd_pr__cap_mim_m3_1 l=2 w=2
X200 out.t205 sky130_fd_sc_hd__inv_2_0.A sky130_fd_pr__cap_mim_m3_1 l=2 w=2
X201 out.t206 carray_0.unitcap_111.cn sky130_fd_pr__cap_mim_m3_1 l=2 w=2
X202 vin.t10 sw_top_2.en_buf out.t16 vdd.t38 sky130_fd_pr__pfet_01v8 ad=0.145 pd=1.29 as=0.145 ps=1.29 w=1 l=0.3
X203 sw_top_3.en_buf sample.t11 vdd.t76 vdd.t75 sky130_fd_pr__pfet_01v8_hvt ad=0.135 pd=1.27 as=0.135 ps=1.27 w=1 l=0.15
X204 ctl_7_.t2 sky130_fd_sc_hd__inv_2_9.A.t4 vss.t79 vss.t78 sky130_fd_pr__nfet_01v8 ad=0.0878 pd=0.92 as=0.169 ps=1.82 w=0.65 l=0.15
X205 out.t207 sky130_fd_sc_hd__inv_2_9.A sky130_fd_pr__cap_mim_m3_1 l=2 w=2
X206 out.t208 sky130_fd_sc_hd__inv_2_0.A sky130_fd_pr__cap_mim_m3_1 l=2 w=2
X207 out.t209 sky130_fd_sc_hd__inv_2_9.A sky130_fd_pr__cap_mim_m3_1 l=2 w=2
X208 out.t210 carray_0.unitcap_175.cn sky130_fd_pr__cap_mim_m3_1 l=2 w=2
X209 vin.t34 sw_top_1.net1 out.t34 vss.t103 sky130_fd_pr__nfet_01v8 ad=0.145 pd=1.29 as=0.145 ps=1.29 w=1 l=0.3
X210 vss.t89 sky130_fd_sc_hd__inv_2_5.A.t3 ctl_5_.t3 vss.t88 sky130_fd_pr__nfet_01v8 ad=0.169 pd=1.82 as=0.0878 ps=0.92 w=0.65 l=0.15
X211 vss.t61 vdd.t150 vss.t60 vss.t59 sky130_fd_pr__nfet_01v8 ad=0.143 pd=1.62 as=0 ps=0 w=0.55 l=2.89
X212 out.t211 sky130_fd_sc_hd__inv_2_7.A sky130_fd_pr__cap_mim_m3_1 l=2 w=2
X213 vss.t153 sw_top_1.en_buf sw_top_1.net1 vss.t152 sky130_fd_pr__nfet_01v8 ad=0.169 pd=1.82 as=0.0878 ps=0.92 w=0.65 l=0.15
X214 vdd.t145 sample.t12 sw_top_2.en_buf vdd.t144 sky130_fd_pr__pfet_01v8_hvt ad=0.26 pd=2.52 as=0.135 ps=1.27 w=1 l=0.15
X215 out.t212 sky130_fd_sc_hd__inv_2_9.A sky130_fd_pr__cap_mim_m3_1 l=2 w=2
X216 out.t213 sky130_fd_sc_hd__inv_2_4.A sky130_fd_pr__cap_mim_m3_1 l=2 w=2
X217 out.t214 sky130_fd_sc_hd__inv_2_9.A sky130_fd_pr__cap_mim_m3_1 l=2 w=2
X218 out.t215 sky130_fd_sc_hd__inv_2_5.A sky130_fd_pr__cap_mim_m3_1 l=2 w=2
X219 ctl_4_.t2 sky130_fd_sc_hd__inv_2_4.A vss.t159 vss.t158 sky130_fd_pr__nfet_01v8 ad=0.0878 pd=0.92 as=0.169 ps=1.82 w=0.65 l=0.15
X220 out.t216 sky130_fd_sc_hd__inv_2_9.A sky130_fd_pr__cap_mim_m3_1 l=2 w=2
X221 out.t217 sky130_fd_sc_hd__inv_2_9.A sky130_fd_pr__cap_mim_m3_1 l=2 w=2
X222 out.t218 sky130_fd_sc_hd__inv_2_9.A sky130_fd_pr__cap_mim_m3_1 l=2 w=2
X223 out.t64 sw_top_3.net1 vin.t60 vss.t136 sky130_fd_pr__nfet_01v8 ad=0.145 pd=1.29 as=0.145 ps=1.29 w=1 l=0.3
X224 dum.t2 sky130_fd_sc_hd__inv_2_2.A vss.t147 vss.t146 sky130_fd_pr__nfet_01v8 ad=0.0878 pd=0.92 as=0.169 ps=1.82 w=0.65 l=0.15
X225 sw_top_3.net1 sw_top_3.en_buf vss.t54 vss.t53 sky130_fd_pr__nfet_01v8 ad=0.0878 pd=0.92 as=0.0878 ps=0.92 w=0.65 l=0.15
X226 out.t219 sky130_fd_sc_hd__inv_2_0.A sky130_fd_pr__cap_mim_m3_1 l=2 w=2
X227 out.t220 sky130_fd_sc_hd__inv_2_9.A sky130_fd_pr__cap_mim_m3_1 l=2 w=2
X228 out.t221 sky130_fd_sc_hd__inv_2_6.A sky130_fd_pr__cap_mim_m3_1 l=2 w=2
X229 out.t222 sky130_fd_sc_hd__inv_2_0.A sky130_fd_pr__cap_mim_m3_1 l=2 w=2
X230 out.t223 sky130_fd_sc_hd__inv_2_0.A sky130_fd_pr__cap_mim_m3_1 l=2 w=2
X231 vss.t64 vdd.t151 vss.t63 vss.t62 sky130_fd_pr__nfet_01v8 ad=0.143 pd=1.62 as=0 ps=0 w=0.55 l=0.59
X232 sw_top_2.en_buf sample.t13 vss.t163 vss.t162 sky130_fd_pr__nfet_01v8 ad=0.0878 pd=0.92 as=0.169 ps=1.82 w=0.65 l=0.15
X233 vss.t71 sky130_fd_sc_hd__inv_2_8.A ctl_0_.t3 vss.t70 sky130_fd_pr__nfet_01v8 ad=0.169 pd=1.82 as=0.0878 ps=0.92 w=0.65 l=0.15
X234 ctl_5_.t2 sky130_fd_sc_hd__inv_2_5.A.t4 vss.t91 vss.t90 sky130_fd_pr__nfet_01v8 ad=0.0878 pd=0.92 as=0.169 ps=1.82 w=0.65 l=0.15
X235 out.t224 sky130_fd_sc_hd__inv_2_5.A sky130_fd_pr__cap_mim_m3_1 l=2 w=2
X236 out.t225 carray_0.unitcap_56.cn sky130_fd_pr__cap_mim_m3_1 l=2 w=2
X237 out.t226 sky130_fd_sc_hd__inv_2_0.A sky130_fd_pr__cap_mim_m3_1 l=2 w=2
X238 out.t227 sky130_fd_sc_hd__inv_2_9.A sky130_fd_pr__cap_mim_m3_1 l=2 w=2
X239 out.t228 sky130_fd_sc_hd__inv_2_9.A sky130_fd_pr__cap_mim_m3_1 l=2 w=2
X240 out.t229 carray_0.unitcap_8.cn sky130_fd_pr__cap_mim_m3_1 l=2 w=2
X241 vdd.t108 vss.t167 vdd.t107 vdd.t106 sky130_fd_pr__pfet_01v8_hvt ad=0.226 pd=2.26 as=0 ps=0 w=0.87 l=2.89
X242 sw_top_3.en_buf sample.t14 vdd.t70 vdd.t69 sky130_fd_pr__pfet_01v8_hvt ad=0.135 pd=1.27 as=0.26 ps=2.52 w=1 l=0.15
X243 out.t230 carray_0.unitcap_215.cn sky130_fd_pr__cap_mim_m3_1 l=2 w=2
X244 out.t231 carray_0.unitcap_136.cn sky130_fd_pr__cap_mim_m3_1 l=2 w=2
X245 out.t232 carray_0.unitcap_232.cn sky130_fd_pr__cap_mim_m3_1 l=2 w=2
X246 out.t233 sky130_fd_sc_hd__inv_2_9.A sky130_fd_pr__cap_mim_m3_1 l=2 w=2
X247 out.t234 sky130_fd_sc_hd__inv_2_5.A.t0 sky130_fd_pr__cap_mim_m3_1 l=2 w=2
X248 out.t235 sky130_fd_sc_hd__inv_2_9.A sky130_fd_pr__cap_mim_m3_1 l=2 w=2
X249 out.t236 sky130_fd_sc_hd__inv_2_9.A sky130_fd_pr__cap_mim_m3_1 l=2 w=2
X250 out.t237 carray_0.unitcap_55.cn sky130_fd_pr__cap_mim_m3_1 l=2 w=2
X251 sw_top_0.en_buf sample.t15 vdd.t72 vdd.t71 sky130_fd_pr__pfet_01v8_hvt ad=0.135 pd=1.27 as=0.135 ps=1.27 w=1 l=0.15
X252 vdd.t61 sw_top_3.en_buf sw_top_3.net1 vdd.t60 sky130_fd_pr__pfet_01v8_hvt ad=0.26 pd=2.52 as=0.135 ps=1.27 w=1 l=0.15
X253 out.t238 sky130_fd_sc_hd__inv_2_0.A sky130_fd_pr__cap_mim_m3_1 l=2 w=2
X254 vss.t67 vdd.t152 vss.t66 vss.t65 sky130_fd_pr__nfet_01v8 ad=0.143 pd=1.62 as=0 ps=0 w=0.55 l=0.59
X255 out.t239 carray_0.unitcap_337.cn sky130_fd_pr__cap_mim_m3_1 l=2 w=2
X256 out.t240 sky130_fd_sc_hd__inv_2_0.A sky130_fd_pr__cap_mim_m3_1 l=2 w=2
X257 out.t241 carray_0.unitcap_135.cn sky130_fd_pr__cap_mim_m3_1 l=2 w=2
X258 vin.t77 sw_top_1.en_buf out.t76 vdd.t138 sky130_fd_pr__pfet_01v8 ad=0.145 pd=1.29 as=0.145 ps=1.29 w=1 l=0.3
X259 vss.t151 sw_top_1.en_buf sw_top_1.net1 vss.t150 sky130_fd_pr__nfet_01v8 ad=0.0878 pd=0.92 as=0.0878 ps=0.92 w=0.65 l=0.15
X260 out.t63 sw_top_3.net1 vin.t69 vss.t135 sky130_fd_pr__nfet_01v8 ad=0.145 pd=1.29 as=0.29 ps=2.58 w=1 l=0.3
X261 vin.t32 sw_top_1.net1 out.t33 vss.t102 sky130_fd_pr__nfet_01v8 ad=0.29 pd=2.58 as=0.145 ps=1.29 w=1 l=0.3
X262 vdd.t25 sample.t16 sw_top_2.en_buf vdd.t24 sky130_fd_pr__pfet_01v8_hvt ad=0.135 pd=1.27 as=0.135 ps=1.27 w=1 l=0.15
X263 out.t242 sky130_fd_sc_hd__inv_2_5.A sky130_fd_pr__cap_mim_m3_1 l=2 w=2
X264 out.t243 sky130_fd_sc_hd__inv_2_0.A sky130_fd_pr__cap_mim_m3_1 l=2 w=2
X265 out.t244 sky130_fd_sc_hd__inv_2_9.A sky130_fd_pr__cap_mim_m3_1 l=2 w=2
X266 vdd.t105 vss.t168 vdd.t104 vdd.t103 sky130_fd_pr__pfet_01v8_hvt ad=0.226 pd=2.26 as=0 ps=0 w=0.87 l=2.89
X267 sw_top_3.net1 sw_top_3.en_buf vss.t52 vss.t51 sky130_fd_pr__nfet_01v8 ad=0.0878 pd=0.92 as=0.169 ps=1.82 w=0.65 l=0.15
X268 out.t245 sky130_fd_sc_hd__inv_2_9.A sky130_fd_pr__cap_mim_m3_1 l=2 w=2
X269 out.t25 sw_top_3.en_buf vin.t20 vdd.t59 sky130_fd_pr__pfet_01v8 ad=0.145 pd=1.29 as=0.145 ps=1.29 w=1 l=0.3
X270 vin.t58 sw_top_0.net1 out.t56 vss.t128 sky130_fd_pr__nfet_01v8 ad=0.145 pd=1.29 as=0.145 ps=1.29 w=1 l=0.3
X271 out.t246 sky130_fd_sc_hd__inv_2_9.A sky130_fd_pr__cap_mim_m3_1 l=2 w=2
X272 out.t5 sw_top_0.en_buf vin.t7 vdd.t13 sky130_fd_pr__pfet_01v8 ad=0.145 pd=1.29 as=0.29 ps=2.58 w=1 l=0.3
X273 out.t55 sw_top_0.net1 vin.t57 vss.t127 sky130_fd_pr__nfet_01v8 ad=0.145 pd=1.29 as=0.145 ps=1.29 w=1 l=0.3
X274 out.t247 sky130_fd_sc_hd__inv_2_7.A sky130_fd_pr__cap_mim_m3_1 l=2 w=2
X275 out.t248 sky130_fd_sc_hd__inv_2_4.A sky130_fd_pr__cap_mim_m3_1 l=2 w=2
X276 out.t249 sky130_fd_sc_hd__inv_2_9.A sky130_fd_pr__cap_mim_m3_1 l=2 w=2
X277 out.t250 sky130_fd_sc_hd__inv_2_5.A sky130_fd_pr__cap_mim_m3_1 l=2 w=2
X278 out.t251 sky130_fd_sc_hd__inv_2_9.A sky130_fd_pr__cap_mim_m3_1 l=2 w=2
X279 out.t252 sky130_fd_sc_hd__inv_2_9.A sky130_fd_pr__cap_mim_m3_1 l=2 w=2
X280 out.t253 sky130_fd_sc_hd__inv_2_0.A sky130_fd_pr__cap_mim_m3_1 l=2 w=2
X281 out.t254 sky130_fd_sc_hd__inv_2_9.A sky130_fd_pr__cap_mim_m3_1 l=2 w=2
X282 sw_top_1.en_buf sample.t17 vdd.t27 vdd.t26 sky130_fd_pr__pfet_01v8_hvt ad=0.135 pd=1.27 as=0.135 ps=1.27 w=1 l=0.15
X283 out.t255 sky130_fd_sc_hd__inv_2_9.A sky130_fd_pr__cap_mim_m3_1 l=2 w=2
X284 out.t44 sw_top_2.net1 vin.t42 vss.t116 sky130_fd_pr__nfet_01v8 ad=0.145 pd=1.29 as=0.145 ps=1.29 w=1 l=0.3
X285 vin.t18 sw_top_2.en_buf out.t15 vdd.t37 sky130_fd_pr__pfet_01v8 ad=0.145 pd=1.29 as=0.145 ps=1.29 w=1 l=0.3
X286 out.t256 sky130_fd_sc_hd__inv_2_0.A sky130_fd_pr__cap_mim_m3_1 l=2 w=2
X287 out.t257 carray_0.unitcap_16.cn sky130_fd_pr__cap_mim_m3_1 l=2 w=2
X288 out.t258 sky130_fd_sc_hd__inv_2_6.A sky130_fd_pr__cap_mim_m3_1 l=2 w=2
X289 out.t259 sky130_fd_sc_hd__inv_2_0.A sky130_fd_pr__cap_mim_m3_1 l=2 w=2
X290 out.t260 sky130_fd_sc_hd__inv_2_0.A sky130_fd_pr__cap_mim_m3_1 l=2 w=2
X291 sw_top_1.net1 sw_top_1.en_buf vdd.t137 vdd.t136 sky130_fd_pr__pfet_01v8_hvt ad=0.135 pd=1.27 as=0.135 ps=1.27 w=1 l=0.15
X292 vdd.t23 sample.t18 sw_top_0.en_buf vdd.t22 sky130_fd_pr__pfet_01v8_hvt ad=0.135 pd=1.27 as=0.135 ps=1.27 w=1 l=0.15
X293 vin.t31 sw_top_1.net1 out.t32 vss.t101 sky130_fd_pr__nfet_01v8 ad=0.145 pd=1.29 as=0.145 ps=1.29 w=1 l=0.3
X294 out.t261 carray_0.unitcap_184.cn sky130_fd_pr__cap_mim_m3_1 l=2 w=2
X295 out.t262 sky130_fd_sc_hd__inv_2_9.A sky130_fd_pr__cap_mim_m3_1 l=2 w=2
X296 out.t263 carray_0.unitcap_199.cn sky130_fd_pr__cap_mim_m3_1 l=2 w=2
X297 out.t264 sky130_fd_sc_hd__inv_2_9.A sky130_fd_pr__cap_mim_m3_1 l=2 w=2
X298 out.t265 carray_0.unitcap_31.cn sky130_fd_pr__cap_mim_m3_1 l=2 w=2
X299 out.t266 carray_0.unitcap_256.cn sky130_fd_pr__cap_mim_m3_1 l=2 w=2
X300 vdd.t1 sky130_fd_sc_hd__inv_2_6.A ctl_2_.t1 sky130_fd_sc_hd__inv_2_2.VPB sky130_fd_pr__pfet_01v8_hvt ad=0.26 pd=2.52 as=0.135 ps=1.27 w=1 l=0.15
X301 vdd.t58 sw_top_3.en_buf sw_top_3.net1 vdd.t57 sky130_fd_pr__pfet_01v8_hvt ad=0.135 pd=1.27 as=0.135 ps=1.27 w=1 l=0.15
X302 out.t267 sky130_fd_sc_hd__inv_2_9.A sky130_fd_pr__cap_mim_m3_1 l=2 w=2
X303 out.t268 sky130_fd_sc_hd__inv_2_4.A sky130_fd_pr__cap_mim_m3_1 l=2 w=2
X304 out.t269 sky130_fd_sc_hd__inv_2_9.A sky130_fd_pr__cap_mim_m3_1 l=2 w=2
X305 out.t270 sky130_fd_sc_hd__inv_2_5.A sky130_fd_pr__cap_mim_m3_1 l=2 w=2
X306 out.t271 sky130_fd_sc_hd__inv_2_9.A sky130_fd_pr__cap_mim_m3_1 l=2 w=2
X307 out.t272 sky130_fd_sc_hd__inv_2_9.A sky130_fd_pr__cap_mim_m3_1 l=2 w=2
X308 vdd.t12 sw_top_0.en_buf sw_top_0.net1 vdd.t11 sky130_fd_pr__pfet_01v8_hvt ad=0.26 pd=2.52 as=0.135 ps=1.27 w=1 l=0.15
X309 out.t273 sky130_fd_sc_hd__inv_2_0.A sky130_fd_pr__cap_mim_m3_1 l=2 w=2
X310 out.t274 carray_0.unitcap_334.cn sky130_fd_pr__cap_mim_m3_1 l=2 w=2
X311 out.t275 sky130_fd_sc_hd__inv_2_0.A sky130_fd_pr__cap_mim_m3_1 l=2 w=2
X312 sw_top_2.net1 sw_top_2.en_buf vdd.t36 vdd.t35 sky130_fd_pr__pfet_01v8_hvt ad=0.135 pd=1.27 as=0.135 ps=1.27 w=1 l=0.15
X313 out.t276 sky130_fd_sc_hd__inv_2_0.A sky130_fd_pr__cap_mim_m3_1 l=2 w=2
X314 out.t277 sky130_fd_sc_hd__inv_2_9.A sky130_fd_pr__cap_mim_m3_1 l=2 w=2
X315 vin.t27 sw_top_3.en_buf out.t24 vdd.t56 sky130_fd_pr__pfet_01v8 ad=0.145 pd=1.29 as=0.145 ps=1.29 w=1 l=0.3
X316 vdd.t102 vss.t169 vdd.t101 vdd.t100 sky130_fd_pr__pfet_01v8_hvt ad=0.226 pd=2.26 as=0 ps=0 w=0.87 l=2.89
X317 sw_top_0.net1 sw_top_0.en_buf vss.t11 vss.t10 sky130_fd_pr__nfet_01v8 ad=0.0878 pd=0.92 as=0.169 ps=1.82 w=0.65 l=0.15
X318 out.t4 sw_top_0.en_buf vin.t6 vdd.t10 sky130_fd_pr__pfet_01v8 ad=0.145 pd=1.29 as=0.145 ps=1.29 w=1 l=0.3
X319 out.t278 sky130_fd_sc_hd__inv_2_5.A sky130_fd_pr__cap_mim_m3_1 l=2 w=2
X320 vdd.t47 sky130_fd_sc_hd__inv_2_0.A ctl_6_.t1 sky130_fd_sc_hd__inv_2_2.VPB sky130_fd_pr__pfet_01v8_hvt ad=0.26 pd=2.52 as=0.135 ps=1.27 w=1 l=0.15
X321 out.t43 sw_top_2.net1 vin.t41 vss.t115 sky130_fd_pr__nfet_01v8 ad=0.145 pd=1.29 as=0.145 ps=1.29 w=1 l=0.3
X322 out.t279 sky130_fd_sc_hd__inv_2_0.A sky130_fd_pr__cap_mim_m3_1 l=2 w=2
X323 out.t280 sky130_fd_sc_hd__inv_2_9.A sky130_fd_pr__cap_mim_m3_1 l=2 w=2