* SPICE3 file created from sar_analog_flat.ext - technology: sky130B

.subckt sar_analog ctlp7 ctlp6 ctlp5 ctlp4 ctlp3 ctlp2 ctlp1 ctlp0 ctln7 ctln6 ctln5 ctln4 ctln3 ctln2 ctln1 ctln0     
+  trim4 trim3 trim2 trim1 trim0 trimb4 trimb3 trimb2 trimb1 trimb0 vinp vinn sample comp clkc avdd avss
X0 comparator_0.vp dac_0.sky130_fd_sc_hd__inv_2_2.Y sky130_fd_pr__cap_mim_m3_1 l=2 w=2
X1 vinp.t9 dac_0.sw_top_0.en_buf comparator_0.vp.t9 avdd.t70 sky130_fd_pr__pfet_01v8 ad=0.29 pd=2.58 as=0.145 ps=1.29 w=1 l=0.3
X2 comparator_0.trim_0.n4.t15 trim4.t0 avss.t374 avss.t373 sky130_fd_pr__nfet_01v8_lvt ad=0.145 pd=1.29 as=0.145 ps=1.29 w=1 l=0.3
X3 comparator_0.vp dac_0.sky130_fd_sc_hd__inv_2_2.Y sky130_fd_pr__cap_mim_m3_1 l=2 w=2
X4 comparator_0.vp dac_0.sky130_fd_sc_hd__inv_2_0.Y sky130_fd_pr__cap_mim_m3_1 l=2 w=2
X5 dac_1.out.t49 dac_1.sw_top_1.en_buf vinn.t48 avdd.t144 sky130_fd_pr__pfet_01v8 ad=0.145 pd=1.29 as=0.145 ps=1.29 w=1 l=0.3
X6 dac_1.sky130_fd_sc_hd__inv_2_4.Y ctln1.t0 avss.t294 avss.t293 sky130_fd_pr__nfet_01v8 ad=0.0878 pd=0.92 as=0.169 ps=1.82 w=0.65 l=0.15
X7 comparator_0.vp dac_0.sky130_fd_sc_hd__inv_2_2.Y sky130_fd_pr__cap_mim_m3_1 l=2 w=2
X8 dac_1.sw_top_0.en_buf sample.t0 avdd.t114 avdd.t113 sky130_fd_pr__pfet_01v8_hvt ad=0.135 pd=1.27 as=0.135 ps=1.27 w=1 l=0.15
X9 comparator_0.vp.t80 dac_0.carray_0.unitcap_288.cn sky130_fd_pr__cap_mim_m3_1 l=2 w=2
X10 avss.t286 trimb4.t0 comparator_0.trim_1.n4.t7 avss.t285 sky130_fd_pr__nfet_01v8_lvt ad=0.145 pd=1.29 as=0.145 ps=1.29 w=1 l=0.3
X11 dac_1.out dac_1.sky130_fd_sc_hd__inv_2_2.Y sky130_fd_pr__cap_mim_m3_1 l=2 w=2
X12 dac_1.out dac_1.sky130_fd_sc_hd__inv_2_0.Y sky130_fd_pr__cap_mim_m3_1 l=2 w=2
X13 avss.t318 dac_0.sw_top_3.en_buf dac_0.sw_top_3.net1 avss.t317 sky130_fd_pr__nfet_01v8 ad=0.0878 pd=0.92 as=0.0878 ps=0.92 w=0.65 l=0.15
X14 dac_1.out dac_1.sky130_fd_sc_hd__inv_2_0.Y sky130_fd_pr__cap_mim_m3_1 l=2 w=2
X15 comparator_0.vp dac_0.sky130_fd_sc_hd__inv_2_2.Y sky130_fd_pr__cap_mim_m3_1 l=2 w=2
X16 comparator_0.vp dac_0.sky130_fd_sc_hd__inv_2_8.Y sky130_fd_pr__cap_mim_m3_1 l=2 w=2
X17 dac_1.out dac_1.sky130_fd_sc_hd__inv_2_2.Y sky130_fd_pr__cap_mim_m3_1 l=2 w=2
X18 dac_1.out dac_1.carray_0.unitcap_320.cn sky130_fd_pr__cap_mim_m3_1 l=2 w=2
X19 comparator_0.in.t3 comparator_0.trim_0.n4.t3 sky130_fd_pr__cap_mim_m3_1 l=2 w=2
X20 avss.t201 trimb2.t0 comparator_0.trim_1.n2 avss.t200 sky130_fd_pr__nfet_01v8_lvt ad=0.145 pd=1.29 as=0.29 ps=2.58 w=1 l=0.3
X21 comparator_0.vp dac_0.sky130_fd_sc_hd__inv_2_1.Y sky130_fd_pr__cap_mim_m3_1 l=2 w=2
X22 comparator_0.vp dac_0.sky130_fd_sc_hd__inv_2_1.Y sky130_fd_pr__cap_mim_m3_1 l=2 w=2
X23 comparator_0.vp dac_0.sky130_fd_sc_hd__inv_2_5.Y.t2 sky130_fd_pr__cap_mim_m3_1 l=2 w=2
X24 dac_1.out dac_1.sky130_fd_sc_hd__inv_2_2.Y sky130_fd_pr__cap_mim_m3_1 l=2 w=2
X25 comparator_0.vp.t81 dac_0.carray_0.unitcap_322.cn sky130_fd_pr__cap_mim_m3_1 l=2 w=2
X26 comparator_0.vp.t77 dac_0.sw_top_1.net1 vinp.t79 avss.t358 sky130_fd_pr__nfet_01v8 ad=0.145 pd=1.29 as=0.145 ps=1.29 w=1 l=0.3
X27 comparator_0.vp dac_0.carray_0.unitcap_136.cn sky130_fd_pr__cap_mim_m3_1 l=2 w=2
X28 avdd.t116 sample.t1 dac_1.sw_top_3.en_buf avdd.t115 sky130_fd_pr__pfet_01v8_hvt ad=0.135 pd=1.27 as=0.135 ps=1.27 w=1 l=0.15
X29 dac_1.out dac_1.carray_0.unitcap_208.cn sky130_fd_pr__cap_mim_m3_1 l=2 w=2
X30 avss.t378 ctlp1.t0 dac_0.sky130_fd_sc_hd__inv_2_4.Y avss.t377 sky130_fd_pr__nfet_01v8 ad=0.169 pd=1.82 as=0.0878 ps=0.92 w=0.65 l=0.15
X31 vinn.t25 dac_1.sw_top_0.en_buf dac_1.out.t29 avdd.t102 sky130_fd_pr__pfet_01v8 ad=0.145 pd=1.29 as=0.145 ps=1.29 w=1 l=0.3
X32 avdd.t10 ctln7.t0 dac_1.sky130_fd_sc_hd__inv_2_2.Y.t3 dac_1.sky130_fd_sc_hd__inv_2_6.VPB sky130_fd_pr__pfet_01v8_hvt ad=0.26 pd=2.52 as=0.135 ps=1.27 w=1 l=0.15
X33 comparator_0.vp dac_0.sky130_fd_sc_hd__inv_2_2.Y sky130_fd_pr__cap_mim_m3_1 l=2 w=2
X34 dac_1.out dac_1.sky130_fd_sc_hd__inv_2_3.Y.t0 sky130_fd_pr__cap_mim_m3_1 l=2 w=2
X35 dac_1.out dac_1.sky130_fd_sc_hd__inv_2_8.Y sky130_fd_pr__cap_mim_m3_1 l=2 w=2
X36 dac_1.out dac_1.sky130_fd_sc_hd__inv_2_2.Y sky130_fd_pr__cap_mim_m3_1 l=2 w=2
X37 comparator_0.in.t4 comparator_0.trim_0.n3.t3 sky130_fd_pr__cap_mim_m3_1 l=2 w=2
X38 dac_1.out dac_1.sky130_fd_sc_hd__inv_2_2.Y sky130_fd_pr__cap_mim_m3_1 l=2 w=2
X39 dac_0.sw_top_0.net1 dac_0.sw_top_0.en_buf avdd.t69 avdd.t68 sky130_fd_pr__pfet_01v8_hvt ad=0.135 pd=1.27 as=0.26 ps=2.52 w=1 l=0.15
X40 dac_1.out.t79 dac_1.sw_top_2.en_buf vinn.t76 avdd.t308 sky130_fd_pr__pfet_01v8 ad=0.145 pd=1.29 as=0.145 ps=1.29 w=1 l=0.3
X41 dac_1.out dac_1.sky130_fd_sc_hd__inv_2_1.Y.t0 sky130_fd_pr__cap_mim_m3_1 l=2 w=2
X42 comparator_0.vp dac_0.sky130_fd_sc_hd__inv_2_2.Y sky130_fd_pr__cap_mim_m3_1 l=2 w=2
X43 dac_1.out dac_1.sky130_fd_sc_hd__inv_2_2.Y sky130_fd_pr__cap_mim_m3_1 l=2 w=2
X44 comparator_0.vp dac_0.carray_0.unitcap_199.cn sky130_fd_pr__cap_mim_m3_1 l=2 w=2
X45 comparator_0.vp dac_0.carray_0.unitcap_40.cn sky130_fd_pr__cap_mim_m3_1 l=2 w=2
X46 comparator_0.vp dac_0.carray_0.unitcap_31.cn sky130_fd_pr__cap_mim_m3_1 l=2 w=2
X47 dac_1.out dac_1.sky130_fd_sc_hd__inv_2_3.Y sky130_fd_pr__cap_mim_m3_1 l=2 w=2
X48 dac_0.sky130_fd_sc_hd__inv_2_2.Y.t2 ctlp7.t0 avdd.t156 dac_0.sky130_fd_sc_hd__inv_2_6.VPB sky130_fd_pr__pfet_01v8_hvt ad=0.135 pd=1.27 as=0.26 ps=2.52 w=1 l=0.15
X49 comparator_0.outn comparator_0.outp comparator_0.in.t1 avss.t86 sky130_fd_pr__nfet_01v8 ad=0.29 pd=2.58 as=0.29 ps=2.58 w=1 l=0.3
X50 avss.t59 avdd.t311 avss.t58 avss.t57 sky130_fd_pr__nfet_01v8 ad=0.143 pd=1.62 as=0 ps=0 w=0.55 l=0.59
X51 vinp.t19 dac_0.sw_top_2.net1 comparator_0.vp.t13 avss.t148 sky130_fd_pr__nfet_01v8 ad=0.145 pd=1.29 as=0.145 ps=1.29 w=1 l=0.3
X52 comparator_0.vp.t37 dac_0.sw_top_1.en_buf vinp.t39 avdd.t182 sky130_fd_pr__pfet_01v8 ad=0.145 pd=1.29 as=0.145 ps=1.29 w=1 l=0.3
X53 avss.t168 ctlp2.t0 dac_0.sky130_fd_sc_hd__inv_2_5.Y.t1 avss.t167 sky130_fd_pr__nfet_01v8 ad=0.169 pd=1.82 as=0.0878 ps=0.92 w=0.65 l=0.15
X54 comparator_0.vp dac_0.sky130_fd_sc_hd__inv_2_1.Y sky130_fd_pr__cap_mim_m3_1 l=2 w=2
X55 vinp.t29 dac_0.sw_top_0.net1 comparator_0.vp.t22 avss.t158 sky130_fd_pr__nfet_01v8 ad=0.145 pd=1.29 as=0.145 ps=1.29 w=1 l=0.3
X56 dac_1.out dac_1.sky130_fd_sc_hd__inv_2_1.Y sky130_fd_pr__cap_mim_m3_1 l=2 w=2
X57 dac_1.out.t19 dac_1.sw_top_3.en_buf vinn.t12 avdd.t52 sky130_fd_pr__pfet_01v8 ad=0.145 pd=1.29 as=0.145 ps=1.29 w=1 l=0.3
X58 avdd.t51 dac_1.sw_top_3.en_buf dac_1.sw_top_3.net1 avdd.t50 sky130_fd_pr__pfet_01v8_hvt ad=0.26 pd=2.52 as=0.135 ps=1.27 w=1 l=0.15
X59 dac_1.sky130_fd_sc_hd__inv_2_3.Y.t2 ctln3.t0 avdd.t3 dac_1.sky130_fd_sc_hd__inv_2_6.VPB sky130_fd_pr__pfet_01v8_hvt ad=0.135 pd=1.27 as=0.26 ps=2.52 w=1 l=0.15
X60 comparator_0.vp dac_0.sky130_fd_sc_hd__inv_2_0.Y sky130_fd_pr__cap_mim_m3_1 l=2 w=2
X61 dac_1.out dac_1.sky130_fd_sc_hd__inv_2_1.Y sky130_fd_pr__cap_mim_m3_1 l=2 w=2
X62 dac_1.out dac_1.sky130_fd_sc_hd__inv_2_2.Y sky130_fd_pr__cap_mim_m3_1 l=2 w=2
X63 dac_0.sky130_fd_sc_hd__inv_2_3.Y.t3 ctlp3.t0 avss.t176 avss.t175 sky130_fd_pr__nfet_01v8 ad=0.0878 pd=0.92 as=0.169 ps=1.82 w=0.65 l=0.15
X64 dac_1.sw_top_1.en_buf sample.t2 avdd.t118 avdd.t117 sky130_fd_pr__pfet_01v8_hvt ad=0.135 pd=1.27 as=0.135 ps=1.27 w=1 l=0.15
X65 comparator_0.vp dac_0.sky130_fd_sc_hd__inv_2_2.Y sky130_fd_pr__cap_mim_m3_1 l=2 w=2
X66 dac_1.out dac_1.sky130_fd_sc_hd__inv_2_1.Y sky130_fd_pr__cap_mim_m3_1 l=2 w=2
X67 comparator_0.vp dac_0.sky130_fd_sc_hd__inv_2_2.Y sky130_fd_pr__cap_mim_m3_1 l=2 w=2
X68 dac_1.out dac_1.carray_0.unitcap_248.cn sky130_fd_pr__cap_mim_m3_1 l=2 w=2
X69 dac_1.out dac_1.sky130_fd_sc_hd__inv_2_2.Y sky130_fd_pr__cap_mim_m3_1 l=2 w=2
X70 avss.t138 dac_1.sw_top_0.en_buf dac_1.sw_top_0.net1 avss.t137 sky130_fd_pr__nfet_01v8 ad=0.0878 pd=0.92 as=0.0878 ps=0.92 w=0.65 l=0.15
X71 comparator_0.vp dac_0.sky130_fd_sc_hd__inv_2_2.Y sky130_fd_pr__cap_mim_m3_1 l=2 w=2
X72 dac_1.out dac_1.sky130_fd_sc_hd__inv_2_2.Y sky130_fd_pr__cap_mim_m3_1 l=2 w=2
X73 dac_1.out.t9 dac_1.sw_top_2.net1 vinn.t9 avss.t83 sky130_fd_pr__nfet_01v8 ad=0.145 pd=1.29 as=0.29 ps=2.58 w=1 l=0.3
X74 comparator_0.vp dac_0.carray_0.unitcap_248.cn sky130_fd_pr__cap_mim_m3_1 l=2 w=2
X75 dac_0.sky130_fd_sc_hd__inv_2_8.Y.t3 ctlp4.t0 avss.t284 avss.t283 sky130_fd_pr__nfet_01v8 ad=0.0878 pd=0.92 as=0.169 ps=1.82 w=0.65 l=0.15
X76 vinn.t64 dac_1.sw_top_1.net1 dac_1.out.t69 avss.t274 sky130_fd_pr__nfet_01v8 ad=0.29 pd=2.58 as=0.145 ps=1.29 w=1 l=0.3
X77 dac_0.sw_top_1.en_buf sample.t3 avss.t215 avss.t214 sky130_fd_pr__nfet_01v8 ad=0.0878 pd=0.92 as=0.169 ps=1.82 w=0.65 l=0.15
X78 comparator_0.vp dac_0.sky130_fd_sc_hd__inv_2_2.Y sky130_fd_pr__cap_mim_m3_1 l=2 w=2
X79 dac_1.out.t39 dac_1.sw_top_0.net1 vinn.t39 avss.t211 sky130_fd_pr__nfet_01v8 ad=0.145 pd=1.29 as=0.29 ps=2.58 w=1 l=0.3
X80 comparator_0.vp dac_0.carray_0.unitcap_224.cn sky130_fd_pr__cap_mim_m3_1 l=2 w=2
X81 dac_1.out dac_1.sky130_fd_sc_hd__inv_2_0.Y sky130_fd_pr__cap_mim_m3_1 l=2 w=2
X82 comparator_0.vp dac_0.sky130_fd_sc_hd__inv_2_8.Y sky130_fd_pr__cap_mim_m3_1 l=2 w=2
X83 comparator_0.vp dac_0.sky130_fd_sc_hd__inv_2_3.Y sky130_fd_pr__cap_mim_m3_1 l=2 w=2
X84 dac_1.out dac_1.sky130_fd_sc_hd__inv_2_2.Y sky130_fd_pr__cap_mim_m3_1 l=2 w=2
X85 avss.t217 sample.t4 dac_0.sw_top_0.en_buf avss.t216 sky130_fd_pr__nfet_01v8 ad=0.169 pd=1.82 as=0.0878 ps=0.92 w=0.65 l=0.15
X86 vinp.t8 dac_0.sw_top_0.en_buf comparator_0.vp.t8 avdd.t67 sky130_fd_pr__pfet_01v8 ad=0.145 pd=1.29 as=0.145 ps=1.29 w=1 l=0.3
X87 comparator_0.vp dac_0.sky130_fd_sc_hd__inv_2_2.Y sky130_fd_pr__cap_mim_m3_1 l=2 w=2
X88 dac_1.out dac_1.sky130_fd_sc_hd__inv_2_0.Y sky130_fd_pr__cap_mim_m3_1 l=2 w=2
X89 dac_1.out dac_1.carray_0.unitcap_47.cn sky130_fd_pr__cap_mim_m3_1 l=2 w=2
X90 vinn.t4 dac_1.sw_top_2.net1 dac_1.out.t8 avss.t82 sky130_fd_pr__nfet_01v8 ad=0.145 pd=1.29 as=0.145 ps=1.29 w=1 l=0.3
X91 comparator_0.vp dac_0.sky130_fd_sc_hd__inv_2_1.Y sky130_fd_pr__cap_mim_m3_1 l=2 w=2
X92 comparator_0.vp.t82 dac_0.carray_0.unitcap_337.cn sky130_fd_pr__cap_mim_m3_1 l=2 w=2
X93 dac_1.out dac_1.sky130_fd_sc_hd__inv_2_2.Y sky130_fd_pr__cap_mim_m3_1 l=2 w=2
X94 comparator_0.in.t5 comparator_0.trim_0.n4.t4 sky130_fd_pr__cap_mim_m3_1 l=2 w=2
X95 comparator_0.vp dac_0.sky130_fd_sc_hd__inv_2_2.Y sky130_fd_pr__cap_mim_m3_1 l=2 w=2
X96 comparator_0.vp dac_0.sky130_fd_sc_hd__inv_2_1.Y sky130_fd_pr__cap_mim_m3_1 l=2 w=2
X97 dac_1.out.t80 dac_1.carray_0.unitcap_14.cn sky130_fd_pr__cap_mim_m3_1 l=2 w=2
X98 vinp.t59 dac_0.sw_top_3.net1 comparator_0.vp.t52 avss.t332 sky130_fd_pr__nfet_01v8 ad=0.145 pd=1.29 as=0.145 ps=1.29 w=1 l=0.3
X99 avdd.t126 sample.t5 dac_0.sw_top_1.en_buf avdd.t125 sky130_fd_pr__pfet_01v8_hvt ad=0.26 pd=2.52 as=0.135 ps=1.27 w=1 l=0.15
X100 dac_1.sw_top_0.en_buf sample.t6 avdd.t104 avdd.t103 sky130_fd_pr__pfet_01v8_hvt ad=0.135 pd=1.27 as=0.26 ps=2.52 w=1 l=0.15
X101 comparator_0.in.t6 comparator_0.trim_0.n2 sky130_fd_pr__cap_mim_m3_1 l=2 w=2
X102 dac_1.out dac_1.sky130_fd_sc_hd__inv_2_8.Y sky130_fd_pr__cap_mim_m3_1 l=2 w=2
X103 dac_0.sky130_fd_sc_hd__inv_2_5.Y.t3 ctlp2.t1 avss.t376 avss.t375 sky130_fd_pr__nfet_01v8 ad=0.0878 pd=0.92 as=0.169 ps=1.82 w=0.65 l=0.15
X104 dac_1.out dac_1.sky130_fd_sc_hd__inv_2_2.Y sky130_fd_pr__cap_mim_m3_1 l=2 w=2
X105 dac_1.out dac_1.sky130_fd_sc_hd__inv_2_2.Y sky130_fd_pr__cap_mim_m3_1 l=2 w=2
X106 dac_1.out dac_1.carray_0.unitcap_223.cn sky130_fd_pr__cap_mim_m3_1 l=2 w=2
X107 dac_1.out dac_1.carray_0.unitcap_127.cn sky130_fd_pr__cap_mim_m3_1 l=2 w=2
X108 comparator_0.vp.t56 dac_0.sw_top_3.net1 vinp.t58 avss.t331 sky130_fd_pr__nfet_01v8 ad=0.145 pd=1.29 as=0.145 ps=1.29 w=1 l=0.3
X109 avss.t288 trimb4.t1 comparator_0.trim_1.n4.t6 avss.t287 sky130_fd_pr__nfet_01v8_lvt ad=0.145 pd=1.29 as=0.145 ps=1.29 w=1 l=0.3
X110 comparator_0.vp dac_0.sky130_fd_sc_hd__inv_2_2.Y sky130_fd_pr__cap_mim_m3_1 l=2 w=2
X111 comparator_0.vp dac_0.sky130_fd_sc_hd__inv_2_1.Y sky130_fd_pr__cap_mim_m3_1 l=2 w=2
X112 dac_1.out dac_1.sky130_fd_sc_hd__inv_2_1.Y sky130_fd_pr__cap_mim_m3_1 l=2 w=2
X113 comparator_0.trim_0.n4.t14 trim4.t1 avss.t372 avss.t371 sky130_fd_pr__nfet_01v8_lvt ad=0.145 pd=1.29 as=0.145 ps=1.29 w=1 l=0.3
X114 comparator_0.vp dac_0.carray_0.unitcap_152.cn sky130_fd_pr__cap_mim_m3_1 l=2 w=2
X115 comparator_0.vp dac_0.sky130_fd_sc_hd__inv_2_1.Y sky130_fd_pr__cap_mim_m3_1 l=2 w=2
X116 avss.t260 trim2.t0 comparator_0.trim_0.n2 avss.t259 sky130_fd_pr__nfet_01v8_lvt ad=0.145 pd=1.29 as=0.29 ps=2.58 w=1 l=0.3
X117 comparator_0.vp dac_0.sky130_fd_sc_hd__inv_2_2.Y sky130_fd_pr__cap_mim_m3_1 l=2 w=2
X118 dac_1.out dac_1.sky130_fd_sc_hd__inv_2_7.Y sky130_fd_pr__cap_mim_m3_1 l=2 w=2
X119 dac_1.out.t59 dac_1.sw_top_3.net1 vinn.t56 avss.t256 sky130_fd_pr__nfet_01v8 ad=0.145 pd=1.29 as=0.145 ps=1.29 w=1 l=0.3
X120 vinp.t49 dac_0.sw_top_3.en_buf comparator_0.vp.t40 avdd.t257 sky130_fd_pr__pfet_01v8 ad=0.145 pd=1.29 as=0.145 ps=1.29 w=1 l=0.3
X121 comparator_0.vp dac_0.carray_0.unitcap_64.cn sky130_fd_pr__cap_mim_m3_1 l=2 w=2
X122 dac_1.out dac_1.sky130_fd_sc_hd__inv_2_1.Y sky130_fd_pr__cap_mim_m3_1 l=2 w=2
X123 avdd.t207 avss.t409 avdd.t206 avdd.t205 sky130_fd_pr__pfet_01v8_hvt ad=0.226 pd=2.26 as=0 ps=0 w=0.87 l=2.89
X124 avdd.t18 clkc.t0 comparator_0.outn avdd.t17 sky130_fd_pr__pfet_01v8 ad=0.29 pd=2.58 as=0.29 ps=2.58 w=1 l=0.3
X125 comparator_0.vp dac_0.sky130_fd_sc_hd__inv_2_0.Y sky130_fd_pr__cap_mim_m3_1 l=2 w=2
X126 dac_1.out dac_1.sky130_fd_sc_hd__inv_2_1.Y sky130_fd_pr__cap_mim_m3_1 l=2 w=2
X127 comp.t0 a_33300_5579# avss.t236 avss.t84 sky130_fd_pr__nfet_01v8_lvt ad=0.29 pd=2.58 as=0.29 ps=2.58 w=1 l=0.4
X128 comparator_0.vp dac_0.sky130_fd_sc_hd__inv_2_2.Y sky130_fd_pr__cap_mim_m3_1 l=2 w=2
X129 comparator_0.vp dac_0.sky130_fd_sc_hd__inv_2_0.Y sky130_fd_pr__cap_mim_m3_1 l=2 w=2
X130 dac_1.out dac_1.sky130_fd_sc_hd__inv_2_2.Y sky130_fd_pr__cap_mim_m3_1 l=2 w=2
X131 comparator_0.vp dac_0.carray_0.unitcap_79.cn sky130_fd_pr__cap_mim_m3_1 l=2 w=2
X132 comparator_0.in.t7 comparator_0.trim_0.n3.t2 sky130_fd_pr__cap_mim_m3_1 l=2 w=2
X133 a_33300_5579# comparator_0.outn avdd.t31 avdd.t30 sky130_fd_pr__pfet_01v8_lvt ad=0.29 pd=2.58 as=0.29 ps=2.58 w=1 l=0.4
X134 vinn.t29 dac_1.sw_top_0.en_buf dac_1.out.t28 avdd.t101 sky130_fd_pr__pfet_01v8 ad=0.145 pd=1.29 as=0.145 ps=1.29 w=1 l=0.3
X135 dac_1.out dac_1.sky130_fd_sc_hd__inv_2_0.Y sky130_fd_pr__cap_mim_m3_1 l=2 w=2
X136 comparator_0.vp dac_0.sky130_fd_sc_hd__inv_2_2.Y sky130_fd_pr__cap_mim_m3_1 l=2 w=2
X137 dac_1.out dac_1.sky130_fd_sc_hd__inv_2_2.Y sky130_fd_pr__cap_mim_m3_1 l=2 w=2
X138 dac_1.out dac_1.sky130_fd_sc_hd__inv_2_2.Y sky130_fd_pr__cap_mim_m3_1 l=2 w=2
X139 comparator_0.vp dac_0.carray_0.unitcap_338.cn sky130_fd_pr__cap_mim_m3_1 l=2 w=2
X140 comparator_0.vp.t30 dac_0.sw_top_1.en_buf vinp.t38 avdd.t181 sky130_fd_pr__pfet_01v8 ad=0.145 pd=1.29 as=0.145 ps=1.29 w=1 l=0.3
X141 dac_1.sw_top_0.net1 dac_1.sw_top_0.en_buf avss.t136 avss.t135 sky130_fd_pr__nfet_01v8 ad=0.0878 pd=0.92 as=0.169 ps=1.82 w=0.65 l=0.15
X142 dac_1.out dac_1.sky130_fd_sc_hd__inv_2_2.Y sky130_fd_pr__cap_mim_m3_1 l=2 w=2
X143 comparator_0.vp dac_0.carray_0.unitcap_159.cn sky130_fd_pr__cap_mim_m3_1 l=2 w=2
X144 avdd.t49 dac_1.sw_top_3.en_buf dac_1.sw_top_3.net1 avdd.t48 sky130_fd_pr__pfet_01v8_hvt ad=0.135 pd=1.27 as=0.135 ps=1.27 w=1 l=0.15
X145 comparator_0.vp dac_0.carray_0.unitcap_320.cn sky130_fd_pr__cap_mim_m3_1 l=2 w=2
X146 dac_1.out dac_1.sky130_fd_sc_hd__inv_2_3.Y.t1 sky130_fd_pr__cap_mim_m3_1 l=2 w=2
X147 comparator_0.vp dac_0.sky130_fd_sc_hd__inv_2_0.Y sky130_fd_pr__cap_mim_m3_1 l=2 w=2
X148 dac_1.out dac_1.sky130_fd_sc_hd__inv_2_8.Y sky130_fd_pr__cap_mim_m3_1 l=2 w=2
X149 dac_1.out dac_1.sky130_fd_sc_hd__inv_2_2.Y sky130_fd_pr__cap_mim_m3_1 l=2 w=2
X150 comparator_0.vp dac_0.sky130_fd_sc_hd__inv_2_1.Y sky130_fd_pr__cap_mim_m3_1 l=2 w=2
X151 dac_1.out dac_1.carray_0.unitcap_328.cn sky130_fd_pr__cap_mim_m3_1 l=2 w=2
X152 dac_1.out dac_1.sky130_fd_sc_hd__inv_2_1.Y sky130_fd_pr__cap_mim_m3_1 l=2 w=2
X153 dac_1.out dac_1.carray_0.unitcap_71.cn sky130_fd_pr__cap_mim_m3_1 l=2 w=2
X154 dac_1.out dac_1.sky130_fd_sc_hd__inv_2_1.Y sky130_fd_pr__cap_mim_m3_1 l=2 w=2
X155 comparator_0.vp dac_0.sky130_fd_sc_hd__inv_2_1.Y sky130_fd_pr__cap_mim_m3_1 l=2 w=2
X156 comparator_0.vp dac_0.sky130_fd_sc_hd__inv_2_2.Y sky130_fd_pr__cap_mim_m3_1 l=2 w=2
X157 dac_1.out dac_1.sky130_fd_sc_hd__inv_2_2.Y sky130_fd_pr__cap_mim_m3_1 l=2 w=2
X158 comparator_0.vp dac_0.sky130_fd_sc_hd__inv_2_2.Y sky130_fd_pr__cap_mim_m3_1 l=2 w=2
X159 avdd.t210 avss.t410 avdd.t209 avdd.t208 sky130_fd_pr__pfet_01v8_hvt ad=0.226 pd=2.26 as=0 ps=0 w=0.87 l=2.89
X160 vinp.t69 dac_0.sw_top_2.en_buf comparator_0.vp.t64 avdd.t286 sky130_fd_pr__pfet_01v8 ad=0.145 pd=1.29 as=0.145 ps=1.29 w=1 l=0.3
X161 vinn.t11 dac_1.sw_top_3.en_buf dac_1.out.t18 avdd.t47 sky130_fd_pr__pfet_01v8 ad=0.29 pd=2.58 as=0.145 ps=1.29 w=1 l=0.3
X162 avss.t63 ctln7.t1 dac_1.sky130_fd_sc_hd__inv_2_2.Y.t4 avss.t62 sky130_fd_pr__nfet_01v8 ad=0.169 pd=1.82 as=0.0878 ps=0.92 w=0.65 l=0.15
X163 comparator_0.vp dac_0.carray_0.unitcap_200.cn sky130_fd_pr__cap_mim_m3_1 l=2 w=2
X164 avss.t316 dac_0.sw_top_3.en_buf dac_0.sw_top_3.net1 avss.t315 sky130_fd_pr__nfet_01v8 ad=0.169 pd=1.82 as=0.0878 ps=0.92 w=0.65 l=0.15
X165 comparator_0.vp dac_0.sky130_fd_sc_hd__inv_2_0.Y sky130_fd_pr__cap_mim_m3_1 l=2 w=2
X166 dac_1.out dac_1.carray_0.unitcap_167.cn sky130_fd_pr__cap_mim_m3_1 l=2 w=2
X167 avdd.t106 sample.t7 dac_0.sw_top_1.en_buf avdd.t105 sky130_fd_pr__pfet_01v8_hvt ad=0.135 pd=1.27 as=0.135 ps=1.27 w=1 l=0.15
X168 dac_1.out dac_1.sky130_fd_sc_hd__inv_2_2.Y sky130_fd_pr__cap_mim_m3_1 l=2 w=2
X169 comparator_0.vp dac_0.sky130_fd_sc_hd__inv_2_0.Y sky130_fd_pr__cap_mim_m3_1 l=2 w=2
X170 dac_1.out dac_1.sky130_fd_sc_hd__inv_2_2.Y sky130_fd_pr__cap_mim_m3_1 l=2 w=2
X171 dac_1.out dac_1.sky130_fd_sc_hd__inv_2_1.Y sky130_fd_pr__cap_mim_m3_1 l=2 w=2
X172 dac_0.sky130_fd_sc_hd__inv_2_2.Y.t3 ctlp7.t1 avss.t230 avss.t229 sky130_fd_pr__nfet_01v8 ad=0.0878 pd=0.92 as=0.169 ps=1.82 w=0.65 l=0.15
X173 comparator_0.vp dac_0.sky130_fd_sc_hd__inv_2_2.Y sky130_fd_pr__cap_mim_m3_1 l=2 w=2
X174 comparator_0.vp dac_0.sky130_fd_sc_hd__inv_2_2.Y sky130_fd_pr__cap_mim_m3_1 l=2 w=2
X175 vinn.t43 dac_1.sw_top_1.en_buf dac_1.out.t48 avdd.t143 sky130_fd_pr__pfet_01v8 ad=0.145 pd=1.29 as=0.145 ps=1.29 w=1 l=0.3
X176 comparator_0.vp dac_0.sky130_fd_sc_hd__inv_2_2.Y sky130_fd_pr__cap_mim_m3_1 l=2 w=2
X177 vinp.t68 dac_0.sw_top_2.en_buf comparator_0.vp.t63 avdd.t285 sky130_fd_pr__pfet_01v8 ad=0.29 pd=2.58 as=0.145 ps=1.29 w=1 l=0.3
X178 dac_1.sky130_fd_sc_hd__inv_2_3.Y.t3 ctln3.t1 avss.t7 avss.t6 sky130_fd_pr__nfet_01v8 ad=0.0878 pd=0.92 as=0.169 ps=1.82 w=0.65 l=0.15
X179 comparator_0.vp dac_0.sky130_fd_sc_hd__inv_2_2.Y sky130_fd_pr__cap_mim_m3_1 l=2 w=2
X180 comparator_0.vp dac_0.carray_0.unitcap_104.cn sky130_fd_pr__cap_mim_m3_1 l=2 w=2
X181 dac_0.sky130_fd_sc_hd__inv_2_7.Y avdd.t6 avdd.t7 dac_0.sky130_fd_sc_hd__inv_2_6.VPB sky130_fd_pr__pfet_01v8_hvt ad=0.135 pd=1.27 as=0.26 ps=2.52 w=1 l=0.15
X182 comparator_0.trim_0.n4.t13 trim4.t2 avss.t370 avss.t369 sky130_fd_pr__nfet_01v8_lvt ad=0.29 pd=2.58 as=0.145 ps=1.29 w=1 l=0.3
X183 dac_1.out.t47 dac_1.sw_top_1.en_buf vinn.t42 avdd.t142 sky130_fd_pr__pfet_01v8 ad=0.145 pd=1.29 as=0.145 ps=1.29 w=1 l=0.3
X184 avss.t162 sample.t8 dac_1.sw_top_1.en_buf avss.t161 sky130_fd_pr__nfet_01v8 ad=0.169 pd=1.82 as=0.0878 ps=0.92 w=0.65 l=0.15
X185 comparator_0.vp dac_0.sky130_fd_sc_hd__inv_2_3.Y sky130_fd_pr__cap_mim_m3_1 l=2 w=2
X186 dac_1.out dac_1.sky130_fd_sc_hd__inv_2_0.Y sky130_fd_pr__cap_mim_m3_1 l=2 w=2
X187 dac_0.sw_top_2.en_buf sample.t9 avdd.t146 avdd.t145 sky130_fd_pr__pfet_01v8_hvt ad=0.135 pd=1.27 as=0.26 ps=2.52 w=1 l=0.15
X188 dac_1.out dac_1.sky130_fd_sc_hd__inv_2_2.Y sky130_fd_pr__cap_mim_m3_1 l=2 w=2
X189 comparator_0.vp.t83 dac_0.carray_0.unitcap_331.cn sky130_fd_pr__cap_mim_m3_1 l=2 w=2
X190 dac_1.out dac_1.sky130_fd_sc_hd__inv_2_2.Y sky130_fd_pr__cap_mim_m3_1 l=2 w=2
X191 avss.t306 trimb4.t2 comparator_0.trim_1.n4.t5 avss.t305 sky130_fd_pr__nfet_01v8_lvt ad=0.145 pd=1.29 as=0.145 ps=1.29 w=1 l=0.3
X192 comparator_0.vp dac_0.sky130_fd_sc_hd__inv_2_1.Y sky130_fd_pr__cap_mim_m3_1 l=2 w=2
X193 avdd.t155 ctlp3.t1 dac_0.sky130_fd_sc_hd__inv_2_3.Y.t1 dac_0.sky130_fd_sc_hd__inv_2_6.VPB sky130_fd_pr__pfet_01v8_hvt ad=0.26 pd=2.52 as=0.135 ps=1.27 w=1 l=0.15
X194 avss.t88 trim3.t0 comparator_0.trim_0.n3.t4 avss.t87 sky130_fd_pr__nfet_01v8_lvt ad=0.145 pd=1.29 as=0.145 ps=1.29 w=1 l=0.3
X195 comparator_0.vp dac_0.sky130_fd_sc_hd__inv_2_2.Y sky130_fd_pr__cap_mim_m3_1 l=2 w=2
X196 comparator_0.vp dac_0.sky130_fd_sc_hd__inv_2_2.Y sky130_fd_pr__cap_mim_m3_1 l=2 w=2
X197 comparator_0.vp dac_0.sky130_fd_sc_hd__inv_2_1.Y sky130_fd_pr__cap_mim_m3_1 l=2 w=2
X198 dac_1.out dac_1.carray_0.unitcap_24.cn sky130_fd_pr__cap_mim_m3_1 l=2 w=2
X199 dac_1.out.t81 dac_1.carray_0.unitcap_11.cn sky130_fd_pr__cap_mim_m3_1 l=2 w=2
X200 dac_0.sky130_fd_sc_hd__inv_2_6.Y ctlp0.t0 avdd.t2 dac_0.sky130_fd_sc_hd__inv_2_6.VPB sky130_fd_pr__pfet_01v8_hvt ad=0.135 pd=1.27 as=0.26 ps=2.52 w=1 l=0.15
X201 vinp.t48 dac_0.sw_top_3.en_buf comparator_0.vp.t42 avdd.t256 sky130_fd_pr__pfet_01v8 ad=0.145 pd=1.29 as=0.145 ps=1.29 w=1 l=0.3
X202 dac_1.out.t78 dac_1.sw_top_2.en_buf vinn.t75 avdd.t307 sky130_fd_pr__pfet_01v8 ad=0.145 pd=1.29 as=0.145 ps=1.29 w=1 l=0.3
X203 avdd.t180 dac_0.sw_top_1.en_buf dac_0.sw_top_1.net1 avdd.t179 sky130_fd_pr__pfet_01v8_hvt ad=0.26 pd=2.52 as=0.135 ps=1.27 w=1 l=0.15
X204 dac_1.out.t58 dac_1.sw_top_3.net1 vinn.t55 avss.t255 sky130_fd_pr__nfet_01v8 ad=0.145 pd=1.29 as=0.145 ps=1.29 w=1 l=0.3
X205 comparator_0.trim_1.n3.t3 trimb3.t0 avss.t128 avss.t127 sky130_fd_pr__nfet_01v8_lvt ad=0.145 pd=1.29 as=0.145 ps=1.29 w=1 l=0.3
X206 avss.t94 comparator_0.outp a_33300_6679# avss.t93 sky130_fd_pr__nfet_01v8_lvt ad=0.29 pd=2.58 as=0.29 ps=2.58 w=1 l=0.4
X207 avdd.t213 avss.t411 avdd.t212 avdd.t211 sky130_fd_pr__pfet_01v8_hvt ad=0.226 pd=2.26 as=0 ps=0 w=0.87 l=0.59
X208 avdd.t158 ctlp4.t1 dac_0.sky130_fd_sc_hd__inv_2_8.Y.t2 dac_0.sky130_fd_sc_hd__inv_2_6.VPB sky130_fd_pr__pfet_01v8_hvt ad=0.26 pd=2.52 as=0.135 ps=1.27 w=1 l=0.15
X209 dac_1.out dac_1.sky130_fd_sc_hd__inv_2_8.Y.t0 sky130_fd_pr__cap_mim_m3_1 l=2 w=2
X210 dac_1.out dac_1.sky130_fd_sc_hd__inv_2_2.Y sky130_fd_pr__cap_mim_m3_1 l=2 w=2
X211 comparator_0.vp.t43 dac_0.sw_top_3.en_buf vinp.t47 avdd.t255 sky130_fd_pr__pfet_01v8 ad=0.145 pd=1.29 as=0.145 ps=1.29 w=1 l=0.3
X212 dac_1.out dac_1.sky130_fd_sc_hd__inv_2_2.Y sky130_fd_pr__cap_mim_m3_1 l=2 w=2
X213 avss.t56 avdd.t312 avss.t55 avss.t54 sky130_fd_pr__nfet_01v8 ad=0.143 pd=1.62 as=0 ps=0 w=0.55 l=2.89
X214 dac_1.out dac_1.sky130_fd_sc_hd__inv_2_1.Y sky130_fd_pr__cap_mim_m3_1 l=2 w=2
X215 dac_1.out dac_1.sky130_fd_sc_hd__inv_2_6.Y sky130_fd_pr__cap_mim_m3_1 l=2 w=2
X216 comparator_0.vp dac_0.carray_0.unitcap_207.cn sky130_fd_pr__cap_mim_m3_1 l=2 w=2
X217 avdd.t148 sample.t10 dac_1.sw_top_3.en_buf avdd.t147 sky130_fd_pr__pfet_01v8_hvt ad=0.26 pd=2.52 as=0.135 ps=1.27 w=1 l=0.15
X218 comparator_0.vp dac_0.sky130_fd_sc_hd__inv_2_1.Y sky130_fd_pr__cap_mim_m3_1 l=2 w=2
X219 comparator_0.vp dac_0.carray_0.unitcap_7.cn sky130_fd_pr__cap_mim_m3_1 l=2 w=2
X220 comparator_0.ip.t3 comparator_0.trim_1.n2 sky130_fd_pr__cap_mim_m3_1 l=2 w=2
X221 dac_0.sw_top_2.net1 dac_0.sw_top_2.en_buf avdd.t284 avdd.t283 sky130_fd_pr__pfet_01v8_hvt ad=0.135 pd=1.27 as=0.135 ps=1.27 w=1 l=0.15
X222 comparator_0.vp.t18 dac_0.sw_top_2.net1 vinp.t18 avss.t147 sky130_fd_pr__nfet_01v8 ad=0.145 pd=1.29 as=0.29 ps=2.58 w=1 l=0.3
X223 vinp.t78 dac_0.sw_top_1.net1 comparator_0.vp.t73 avss.t357 sky130_fd_pr__nfet_01v8 ad=0.29 pd=2.58 as=0.145 ps=1.29 w=1 l=0.3
X224 comparator_0.vp dac_0.sky130_fd_sc_hd__inv_2_2.Y sky130_fd_pr__cap_mim_m3_1 l=2 w=2
X225 comparator_0.ip.t0 clkc.t1 avdd.t20 avdd.t19 sky130_fd_pr__pfet_01v8 ad=0.29 pd=2.58 as=0.29 ps=2.58 w=1 l=0.3
X226 dac_0.sw_top_3.net1 dac_0.sw_top_3.en_buf avss.t314 avss.t313 sky130_fd_pr__nfet_01v8 ad=0.0878 pd=0.92 as=0.0878 ps=0.92 w=0.65 l=0.15
X227 comparator_0.vp.t23 dac_0.sw_top_0.net1 vinp.t28 avss.t157 sky130_fd_pr__nfet_01v8 ad=0.145 pd=1.29 as=0.29 ps=2.58 w=1 l=0.3
X228 vinn.t10 dac_1.sw_top_3.en_buf dac_1.out.t17 avdd.t46 sky130_fd_pr__pfet_01v8 ad=0.145 pd=1.29 as=0.145 ps=1.29 w=1 l=0.3
X229 comparator_0.vp dac_0.sky130_fd_sc_hd__inv_2_0.Y sky130_fd_pr__cap_mim_m3_1 l=2 w=2
X230 dac_1.out dac_1.sky130_fd_sc_hd__inv_2_1.Y sky130_fd_pr__cap_mim_m3_1 l=2 w=2
X231 avdd.t216 avss.t412 avdd.t215 avdd.t214 sky130_fd_pr__pfet_01v8_hvt ad=0.226 pd=2.26 as=0 ps=0 w=0.87 l=0.59
X232 vinn.t69 dac_1.sw_top_1.net1 dac_1.out.t68 avss.t273 sky130_fd_pr__nfet_01v8 ad=0.145 pd=1.29 as=0.145 ps=1.29 w=1 l=0.3
X233 dac_1.out dac_1.carray_0.unitcap_48.cn sky130_fd_pr__cap_mim_m3_1 l=2 w=2
X234 comparator_0.vp dac_0.sky130_fd_sc_hd__inv_2_2.Y sky130_fd_pr__cap_mim_m3_1 l=2 w=2
X235 dac_1.out dac_1.sky130_fd_sc_hd__inv_2_1.Y sky130_fd_pr__cap_mim_m3_1 l=2 w=2
X236 vinp.t17 dac_0.sw_top_2.net1 comparator_0.vp.t11 avss.t146 sky130_fd_pr__nfet_01v8 ad=0.145 pd=1.29 as=0.145 ps=1.29 w=1 l=0.3
X237 comparator_0.vp dac_0.sky130_fd_sc_hd__inv_2_2.Y sky130_fd_pr__cap_mim_m3_1 l=2 w=2
X238 dac_1.out dac_1.sky130_fd_sc_hd__inv_2_2.Y sky130_fd_pr__cap_mim_m3_1 l=2 w=2
X239 comparator_0.vp dac_0.carray_0.unitcap_231.cn sky130_fd_pr__cap_mim_m3_1 l=2 w=2
X240 comparator_0.vp dac_0.sky130_fd_sc_hd__inv_2_2.Y sky130_fd_pr__cap_mim_m3_1 l=2 w=2
X241 comparator_0.vp dac_0.sky130_fd_sc_hd__inv_2_2.Y sky130_fd_pr__cap_mim_m3_1 l=2 w=2
X242 dac_1.out dac_1.sky130_fd_sc_hd__inv_2_2.Y sky130_fd_pr__cap_mim_m3_1 l=2 w=2
X243 dac_1.out dac_1.sky130_fd_sc_hd__inv_2_2.Y sky130_fd_pr__cap_mim_m3_1 l=2 w=2
X244 comparator_0.vp dac_0.carray_0.unitcap_103.cn sky130_fd_pr__cap_mim_m3_1 l=2 w=2
X245 comparator_0.vp.t80 dac_0.carray_0.unitcap_10.cn sky130_fd_pr__cap_mim_m3_1 l=2 w=2
X246 dac_1.out.t67 dac_1.sw_top_1.net1 vinn.t68 avss.t272 sky130_fd_pr__nfet_01v8 ad=0.145 pd=1.29 as=0.145 ps=1.29 w=1 l=0.3
X247 comparator_0.vp dac_0.sky130_fd_sc_hd__inv_2_2.Y sky130_fd_pr__cap_mim_m3_1 l=2 w=2
X248 dac_1.out dac_1.sky130_fd_sc_hd__inv_2_0.Y sky130_fd_pr__cap_mim_m3_1 l=2 w=2
X249 comparator_0.vp dac_0.sky130_fd_sc_hd__inv_2_8.Y sky130_fd_pr__cap_mim_m3_1 l=2 w=2
X250 comparator_0.vp dac_0.sky130_fd_sc_hd__inv_2_2.Y sky130_fd_pr__cap_mim_m3_1 l=2 w=2
X251 dac_1.out dac_1.sky130_fd_sc_hd__inv_2_0.Y sky130_fd_pr__cap_mim_m3_1 l=2 w=2
X252 dac_1.out dac_1.sky130_fd_sc_hd__inv_2_2.Y sky130_fd_pr__cap_mim_m3_1 l=2 w=2
X253 dac_1.out dac_1.carray_0.unitcap_39.cn sky130_fd_pr__cap_mim_m3_1 l=2 w=2
X254 comparator_0.vp dac_0.sky130_fd_sc_hd__inv_2_1.Y sky130_fd_pr__cap_mim_m3_1 l=2 w=2
X255 comparator_0.vp dac_0.sky130_fd_sc_hd__inv_2_5.Y sky130_fd_pr__cap_mim_m3_1 l=2 w=2
X256 comparator_0.vp dac_0.sky130_fd_sc_hd__inv_2_1.Y sky130_fd_pr__cap_mim_m3_1 l=2 w=2
X257 dac_0.sw_top_3.net1 dac_0.sw_top_3.en_buf avdd.t254 avdd.t253 sky130_fd_pr__pfet_01v8_hvt ad=0.135 pd=1.27 as=0.26 ps=2.52 w=1 l=0.15
X258 comparator_0.vp dac_0.sky130_fd_sc_hd__inv_2_1.Y sky130_fd_pr__cap_mim_m3_1 l=2 w=2
X259 dac_1.out dac_1.sky130_fd_sc_hd__inv_2_2.Y sky130_fd_pr__cap_mim_m3_1 l=2 w=2
X260 comparator_0.vp.t50 dac_0.sw_top_3.net1 vinp.t57 avss.t330 sky130_fd_pr__nfet_01v8 ad=0.145 pd=1.29 as=0.145 ps=1.29 w=1 l=0.3
X261 dac_1.out dac_1.carray_0.unitcap_104.cn sky130_fd_pr__cap_mim_m3_1 l=2 w=2
X262 dac_1.out dac_1.carray_0.unitcap_128.cn sky130_fd_pr__cap_mim_m3_1 l=2 w=2
X263 dac_1.sw_top_1.net1 dac_1.sw_top_1.en_buf avdd.t141 avdd.t140 sky130_fd_pr__pfet_01v8_hvt ad=0.135 pd=1.27 as=0.26 ps=2.52 w=1 l=0.15
X264 avss.t53 avdd.t313 avss.t52 avss.t51 sky130_fd_pr__nfet_01v8 ad=0.143 pd=1.62 as=0 ps=0 w=0.55 l=2.89
X265 comparator_0.vp dac_0.sky130_fd_sc_hd__inv_2_8.Y sky130_fd_pr__cap_mim_m3_1 l=2 w=2
X266 avdd.t150 sample.t11 dac_1.sw_top_2.en_buf avdd.t149 sky130_fd_pr__pfet_01v8_hvt ad=0.26 pd=2.52 as=0.135 ps=1.27 w=1 l=0.15
X267 comparator_0.vp dac_0.sky130_fd_sc_hd__inv_2_2.Y sky130_fd_pr__cap_mim_m3_1 l=2 w=2
X268 dac_1.out dac_1.sky130_fd_sc_hd__inv_2_2.Y sky130_fd_pr__cap_mim_m3_1 l=2 w=2
X269 dac_1.out dac_1.sky130_fd_sc_hd__inv_2_3.Y sky130_fd_pr__cap_mim_m3_1 l=2 w=2
X270 vinn.t38 dac_1.sw_top_0.net1 dac_1.out.t38 avss.t210 sky130_fd_pr__nfet_01v8 ad=0.145 pd=1.29 as=0.145 ps=1.29 w=1 l=0.3
X271 comparator_0.vp dac_0.carray_0.unitcap_208.cn sky130_fd_pr__cap_mim_m3_1 l=2 w=2
X272 dac_1.out dac_1.carray_0.unitcap_247.cn sky130_fd_pr__cap_mim_m3_1 l=2 w=2
X273 dac_1.out dac_1.carray_0.unitcap_119.cn sky130_fd_pr__cap_mim_m3_1 l=2 w=2
X274 dac_1.out dac_1.carray_0.unitcap_32.cn sky130_fd_pr__cap_mim_m3_1 l=2 w=2
X275 avss.t191 sample.t12 dac_1.sw_top_1.en_buf avss.t190 sky130_fd_pr__nfet_01v8 ad=0.0878 pd=0.92 as=0.0878 ps=0.92 w=0.65 l=0.15
X276 comparator_0.vp dac_0.sky130_fd_sc_hd__inv_2_2.Y sky130_fd_pr__cap_mim_m3_1 l=2 w=2
X277 comparator_0.vp dac_0.sky130_fd_sc_hd__inv_2_1.Y sky130_fd_pr__cap_mim_m3_1 l=2 w=2
X278 dac_1.out dac_1.sky130_fd_sc_hd__inv_2_8.Y sky130_fd_pr__cap_mim_m3_1 l=2 w=2
X279 dac_1.out dac_1.sky130_fd_sc_hd__inv_2_1.Y sky130_fd_pr__cap_mim_m3_1 l=2 w=2
X280 comparator_0.vp.t1 dac_0.sw_top_0.en_buf vinp.t7 avdd.t66 sky130_fd_pr__pfet_01v8 ad=0.145 pd=1.29 as=0.145 ps=1.29 w=1 l=0.3
X281 dac_1.out.t7 dac_1.sw_top_2.net1 vinn.t3 avss.t81 sky130_fd_pr__nfet_01v8 ad=0.145 pd=1.29 as=0.145 ps=1.29 w=1 l=0.3
X282 comparator_0.vp.t84 dac_0.sky130_fd_sc_hd__inv_2_2.Y sky130_fd_pr__cap_mim_m3_1 l=2 w=2
X283 dac_1.out dac_1.sky130_fd_sc_hd__inv_2_2.Y sky130_fd_pr__cap_mim_m3_1 l=2 w=2
X284 comparator_0.vp dac_0.sky130_fd_sc_hd__inv_2_2.Y sky130_fd_pr__cap_mim_m3_1 l=2 w=2
X285 avdd.t178 dac_0.sw_top_1.en_buf dac_0.sw_top_1.net1 avdd.t177 sky130_fd_pr__pfet_01v8_hvt ad=0.135 pd=1.27 as=0.135 ps=1.27 w=1 l=0.15
X286 comparator_0.vp.t41 dac_0.sw_top_3.en_buf vinp.t46 avdd.t252 sky130_fd_pr__pfet_01v8 ad=0.145 pd=1.29 as=0.29 ps=2.58 w=1 l=0.3
X287 avss.t193 sample.t13 dac_0.sw_top_1.en_buf avss.t192 sky130_fd_pr__nfet_01v8 ad=0.0878 pd=0.92 as=0.0878 ps=0.92 w=0.65 l=0.15
X288 comparator_0.vp dac_0.sky130_fd_sc_hd__inv_2_0.Y sky130_fd_pr__cap_mim_m3_1 l=2 w=2