* SPICE3 file created from sarlogic.ext - technology: sky130B

.subckt sar_logic VGND VPWR cal clk clkc comp ctln[0] ctln[1] ctln[2] ctln[3] ctln[4]
+ ctln[5] ctln[6] ctln[7] ctlp[0] ctlp[1] ctlp[2] ctlp[3] ctlp[4] ctlp[5] ctlp[6]
+ ctlp[7] en result[0] result[1] result[2] result[3] result[4] result[5] result[6]
+ result[7] rstn sample trim[0] trim[1] trim[2] trim[3] trim[4] trimb[0] trimb[1]
+ trimb[2] trimb[3] trimb[4] valid
* X0 VGND VPWR.t184 VGND VGND sky130_fd_pr__nfet_01v8 ad=0.143 pd=1.62 as=199 ps=2.08k w=0 l=0
* X1 VGND VPWR.t24 VGND VGND sky130_fd_pr__nfet_01v8 ad=0.143 pd=1.62 as=0 ps=0 w=0 l=0
* X2 VPWR VGND.t92 VPWR VPWR sky130_fd_pr__pfet_01v8_hvt ad=0.226 pd=2.26 as=299 ps=2.85k w=0 l=0
* X3 VGND VPWR.t40 VGND VGND sky130_fd_pr__nfet_01v8 ad=0.143 pd=1.62 as=0 ps=0 w=0 l=0
* X4 VGND VPWR.t234 VGND VGND sky130_fd_pr__nfet_01v8 ad=0.143 pd=1.62 as=0 ps=0 w=0 l=0
* X5 VGND VPWR.t167 VGND VGND sky130_fd_pr__nfet_01v8 ad=0.143 pd=1.62 as=0 ps=0 w=0 l=0
* X6 VPWR VGND.t241 VPWR VPWR sky130_fd_pr__pfet_01v8_hvt ad=0.226 pd=2.26 as=0 ps=0 w=0 l=0
* X7 VGND VPWR.t9 VGND VGND sky130_fd_pr__nfet_01v8 ad=0.143 pd=1.62 as=0 ps=0 w=0 l=0
* X8 VPWR VGND.t32 VPWR VPWR sky130_fd_pr__pfet_01v8_hvt ad=0.226 pd=2.26 as=0 ps=0 w=0 l=0
* X9 VPWR VGND.t38 VPWR VPWR sky130_fd_pr__pfet_01v8_hvt ad=0.226 pd=2.26 as=0 ps=0 w=0 l=0
* X10 VPWR VGND.t168 VPWR VPWR sky130_fd_pr__pfet_01v8_hvt ad=0.226 pd=2.26 as=0 ps=0 w=0 l=0
* X11 VGND VPWR.t29 VGND VGND sky130_fd_pr__nfet_01v8 ad=0.143 pd=1.62 as=0 ps=0 w=0 l=0
* X12 VGND VPWR.t0 VGND VGND sky130_fd_pr__nfet_01v8 ad=0.143 pd=1.62 as=0 ps=0 w=0 l=0
* X13 VPWR VGND.t9 VPWR VPWR sky130_fd_pr__pfet_01v8_hvt ad=0.226 pd=2.26 as=0 ps=0 w=0 l=0
* X14 VPWR VGND.t117 VPWR VPWR sky130_fd_pr__pfet_01v8_hvt ad=0.226 pd=2.26 as=0 ps=0 w=0 l=0
* X15 VPWR VGND.t161 VPWR VPWR sky130_fd_pr__pfet_01v8_hvt ad=0.226 pd=2.26 as=0 ps=0 w=0 l=0
* X16 VGND VPWR.t155 VGND VGND sky130_fd_pr__nfet_01v8 ad=0.143 pd=1.62 as=0 ps=0 w=0 l=0
* X17 VPWR VGND.t131 VPWR VPWR sky130_fd_pr__pfet_01v8_hvt ad=0.226 pd=2.26 as=0 ps=0 w=0 l=0
* X18 VGND VPWR.t194 VGND VGND sky130_fd_pr__nfet_01v8 ad=0.143 pd=1.62 as=0 ps=0 w=0 l=0
* X19 VGND VPWR.t140 VGND VGND sky130_fd_pr__nfet_01v8 ad=0.143 pd=1.62 as=0 ps=0 w=0 l=0
* X20 VPWR VGND.t94 VPWR VPWR sky130_fd_pr__pfet_01v8_hvt ad=0.226 pd=2.26 as=0 ps=0 w=0 l=0
* X21 VPWR VGND.t219 VPWR VPWR sky130_fd_pr__pfet_01v8_hvt ad=0.226 pd=2.26 as=0 ps=0 w=0 l=0
* X22 VPWR VGND.t190 VPWR VPWR sky130_fd_pr__pfet_01v8_hvt ad=0.226 pd=2.26 as=0 ps=0 w=0 l=0
* X23 VPWR VGND.t211 VPWR VPWR sky130_fd_pr__pfet_01v8_hvt ad=0.226 pd=2.26 as=0 ps=0 w=0 l=0
* X24 VGND VPWR.t241 VGND VGND sky130_fd_pr__nfet_01v8 ad=0.143 pd=1.62 as=0 ps=0 w=0 l=0
* X25 VGND VPWR.t20 VGND VGND sky130_fd_pr__nfet_01v8 ad=0.143 pd=1.62 as=0 ps=0 w=0 l=0
* X26 VGND VPWR.t215 VGND VGND sky130_fd_pr__nfet_01v8 ad=0.143 pd=1.62 as=0 ps=0 w=0 l=0
* X27 VPWR VGND.t235 VPWR VPWR sky130_fd_pr__pfet_01v8_hvt ad=0.226 pd=2.26 as=0 ps=0 w=0 l=0
* X28 VPWR VGND.t244 VPWR VPWR sky130_fd_pr__pfet_01v8_hvt ad=0.226 pd=2.26 as=0 ps=0 w=0 l=0
* X29 VPWR VGND.t74 VPWR VPWR sky130_fd_pr__pfet_01v8_hvt ad=0.226 pd=2.26 as=0 ps=0 w=0 l=0
* X30 VPWR VGND.t26 VPWR VPWR sky130_fd_pr__pfet_01v8_hvt ad=0.226 pd=2.26 as=0 ps=0 w=0 l=0
* X31 VPWR VGND.t103 VPWR VPWR sky130_fd_pr__pfet_01v8_hvt ad=0.226 pd=2.26 as=0 ps=0 w=0 l=0
* X32 VPWR VGND.t140 VPWR VPWR sky130_fd_pr__pfet_01v8_hvt ad=0.226 pd=2.26 as=0 ps=0 w=0 l=0
* X33 VPWR VGND.t10 VPWR VPWR sky130_fd_pr__pfet_01v8_hvt ad=0.226 pd=2.26 as=0 ps=0 w=0 l=0
* X34 VPWR VGND.t192 VPWR VPWR sky130_fd_pr__pfet_01v8_hvt ad=0.226 pd=2.26 as=0 ps=0 w=0 l=0
* X35 VPWR VGND.t197 VPWR VPWR sky130_fd_pr__pfet_01v8_hvt ad=0.226 pd=2.26 as=0 ps=0 w=0 l=0
* X36 VPWR VGND.t59 VPWR VPWR sky130_fd_pr__pfet_01v8_hvt ad=0.226 pd=2.26 as=0 ps=0 w=0 l=0
* X37 VGND VPWR.t57 VGND VGND sky130_fd_pr__nfet_01v8 ad=0.143 pd=1.62 as=0 ps=0 w=0 l=0
* X38 VPWR VGND.t107 VPWR VPWR sky130_fd_pr__pfet_01v8_hvt ad=0.226 pd=2.26 as=0 ps=0 w=0 l=0
* X39 VPWR VGND.t238 VPWR VPWR sky130_fd_pr__pfet_01v8_hvt ad=0.226 pd=2.26 as=0 ps=0 w=0 l=0
* X40 VGND VPWR.t8 VGND VGND sky130_fd_pr__nfet_01v8 ad=0.143 pd=1.62 as=0 ps=0 w=0 l=0
* X41 VGND VPWR.t137 VGND VGND sky130_fd_pr__nfet_01v8 ad=0.143 pd=1.62 as=0 ps=0 w=0 l=0
* X42 VGND VPWR.t165 VGND VGND sky130_fd_pr__nfet_01v8 ad=0.143 pd=1.62 as=0 ps=0 w=0 l=0
* X43 VGND VPWR.t187 VGND VGND sky130_fd_pr__nfet_01v8 ad=0.143 pd=1.62 as=0 ps=0 w=0 l=0
* X44 VPWR VGND.t57 VPWR VPWR sky130_fd_pr__pfet_01v8_hvt ad=0.226 pd=2.26 as=0 ps=0 w=0 l=0
* X45 VGND VPWR.t145 VGND VGND sky130_fd_pr__nfet_01v8 ad=0.143 pd=1.62 as=0 ps=0 w=0 l=0
* X46 VPWR VGND.t172 VPWR VPWR sky130_fd_pr__pfet_01v8_hvt ad=0.226 pd=2.26 as=0 ps=0 w=0 l=0
* X47 VGND VPWR.t12 VGND VGND sky130_fd_pr__nfet_01v8 ad=0.143 pd=1.62 as=0 ps=0 w=0 l=0
* X48 VPWR VGND.t243 VPWR VPWR sky130_fd_pr__pfet_01v8_hvt ad=0.226 pd=2.26 as=0 ps=0 w=0 l=0
* X49 VGND VPWR.t10 VGND VGND sky130_fd_pr__nfet_01v8 ad=0.143 pd=1.62 as=0 ps=0 w=0 l=0
* X50 VPWR VGND.t16 VPWR VPWR sky130_fd_pr__pfet_01v8_hvt ad=0.226 pd=2.26 as=0 ps=0 w=0 l=0
* X51 VGND VPWR.t192 VGND VGND sky130_fd_pr__nfet_01v8 ad=0.143 pd=1.62 as=0 ps=0 w=0 l=0
* X52 VGND VPWR.t161 VGND VGND sky130_fd_pr__nfet_01v8 ad=0.143 pd=1.62 as=0 ps=0 w=0 l=0
* X53 VGND VPWR.t242 VGND VGND sky130_fd_pr__nfet_01v8 ad=0.143 pd=1.62 as=0 ps=0 w=0 l=0
* X54 VPWR VGND.t62 VPWR VPWR sky130_fd_pr__pfet_01v8_hvt ad=0.226 pd=2.26 as=0 ps=0 w=0 l=0
* X55 VPWR VGND.t12 VPWR VPWR sky130_fd_pr__pfet_01v8_hvt ad=0.226 pd=2.26 as=0 ps=0 w=0 l=0
* X56 VGND VPWR.t49 VGND VGND sky130_fd_pr__nfet_01v8 ad=0.143 pd=1.62 as=0 ps=0 w=0 l=0
* X57 VGND VPWR.t235 VGND VGND sky130_fd_pr__nfet_01v8 ad=0.143 pd=1.62 as=0 ps=0 w=0 l=0
* X58 VGND VPWR.t92 VGND VGND sky130_fd_pr__nfet_01v8 ad=0.143 pd=1.62 as=0 ps=0 w=0 l=0
* X59 VPWR VGND.t159 VPWR VPWR sky130_fd_pr__pfet_01v8_hvt ad=0.226 pd=2.26 as=0 ps=0 w=0 l=0
* X60 VGND VPWR.t218 VGND VGND sky130_fd_pr__nfet_01v8 ad=0.143 pd=1.62 as=0 ps=0 w=0 l=0
* X61 VPWR VGND.t242 VPWR VPWR sky130_fd_pr__pfet_01v8_hvt ad=0.226 pd=2.26 as=0 ps=0 w=0 l=0
* X62 VGND VPWR.t153 VGND VGND sky130_fd_pr__nfet_01v8 ad=0.143 pd=1.62 as=0 ps=0 w=0 l=0
* X63 VPWR VGND.t49 VPWR VPWR sky130_fd_pr__pfet_01v8_hvt ad=0.226 pd=2.26 as=0 ps=0 w=0 l=0
* X64 VGND VPWR.t142 VGND VGND sky130_fd_pr__nfet_01v8 ad=0.143 pd=1.62 as=0 ps=0 w=0 l=0
* X65 VPWR VGND.t226 VPWR VPWR sky130_fd_pr__pfet_01v8_hvt ad=0.226 pd=2.26 as=0 ps=0 w=0 l=0
* X66 VGND VPWR.t247 VGND VGND sky130_fd_pr__nfet_01v8 ad=0.143 pd=1.62 as=0 ps=0 w=0 l=0
* X67 VPWR VGND.t2 VPWR VPWR sky130_fd_pr__pfet_01v8_hvt ad=0.226 pd=2.26 as=0 ps=0 w=0 l=0
* X68 VPWR VGND.t164 VPWR VPWR sky130_fd_pr__pfet_01v8_hvt ad=0.226 pd=2.26 as=0 ps=0 w=0 l=0
* X69 VGND VPWR.t72 VGND VGND sky130_fd_pr__nfet_01v8 ad=0.143 pd=1.62 as=0 ps=0 w=0 l=0
* X70 VPWR VGND.t143 VPWR VPWR sky130_fd_pr__pfet_01v8_hvt ad=0.226 pd=2.26 as=0 ps=0 w=0 l=0
* X71 VPWR VGND.t122 VPWR VPWR sky130_fd_pr__pfet_01v8_hvt ad=0.226 pd=2.26 as=0 ps=0 w=0 l=0
* X72 VPWR VGND.t142 VPWR VPWR sky130_fd_pr__pfet_01v8_hvt ad=0.226 pd=2.26 as=0 ps=0 w=0 l=0
* X73 VGND VPWR.t62 VGND VGND sky130_fd_pr__nfet_01v8 ad=0.143 pd=1.62 as=0 ps=0 w=0 l=0
* X74 VPWR VGND.t253 VPWR VPWR sky130_fd_pr__pfet_01v8_hvt ad=0.226 pd=2.26 as=0 ps=0 w=0 l=0
* X75 VPWR VGND.t28 VPWR VPWR sky130_fd_pr__pfet_01v8_hvt ad=0.226 pd=2.26 as=0 ps=0 w=0 l=0
* X76 VGND VPWR.t209 VGND VGND sky130_fd_pr__nfet_01v8 ad=0.143 pd=1.62 as=0 ps=0 w=0 l=0
* X77 VPWR VGND.t213 VPWR VPWR sky130_fd_pr__pfet_01v8_hvt ad=0.226 pd=2.26 as=0 ps=0 w=0 l=0
* X78 VGND VPWR.t75 VGND VGND sky130_fd_pr__nfet_01v8 ad=0.143 pd=1.62 as=0 ps=0 w=0 l=0
* X79 VPWR VGND.t163 VPWR VPWR sky130_fd_pr__pfet_01v8_hvt ad=0.226 pd=2.26 as=0 ps=0 w=0 l=0
* X80 VPWR VGND.t208 VPWR VPWR sky130_fd_pr__pfet_01v8_hvt ad=0.226 pd=2.26 as=0 ps=0 w=0 l=0
* X81 VPWR VGND.t175 VPWR VPWR sky130_fd_pr__pfet_01v8_hvt ad=0.226 pd=2.26 as=0 ps=0 w=0 l=0
* X82 VPWR VGND.t118 VPWR VPWR sky130_fd_pr__pfet_01v8_hvt ad=0.226 pd=2.26 as=0 ps=0 w=0 l=0
* X83 clkbuf_0_clk/a_110_47# clk.t1 VPWR VPWR sky130_fd_pr__pfet_01v8_hvt ad=0.14 pd=1.28 as=0.265 ps=2.53 w=0 l=0
* X84 VGND VPWR.t190 VGND VGND sky130_fd_pr__nfet_01v8 ad=0.143 pd=1.62 as=0 ps=0 w=0 l=0
* X85 VPWR VGND.t202 VPWR VPWR sky130_fd_pr__pfet_01v8_hvt ad=0.226 pd=2.26 as=0 ps=0 w=0 l=0
* X86 VGND VPWR.t91 VGND VGND sky130_fd_pr__nfet_01v8 ad=0.143 pd=1.62 as=0 ps=0 w=0 l=0
* X87 VGND VPWR.t46 VGND VGND sky130_fd_pr__nfet_01v8 ad=0.143 pd=1.62 as=0 ps=0 w=0 l=0
* X88 VPWR VGND.t176 VPWR VPWR sky130_fd_pr__pfet_01v8_hvt ad=0.226 pd=2.26 as=0 ps=0 w=0 l=0
* X89 VPWR VGND.t101 VPWR VPWR sky130_fd_pr__pfet_01v8_hvt ad=0.226 pd=2.26 as=0 ps=0 w=0 l=0
* X90 VPWR VGND.t75 VPWR VPWR sky130_fd_pr__pfet_01v8_hvt ad=0.226 pd=2.26 as=0 ps=0 w=0 l=0
* X91 VGND VPWR.t74 VGND VGND sky130_fd_pr__nfet_01v8 ad=0.143 pd=1.62 as=0 ps=0 w=0 l=0
* X92 VGND VPWR.t96 VGND VGND sky130_fd_pr__nfet_01v8 ad=0.143 pd=1.62 as=0 ps=0 w=0 l=0
* X93 VGND VPWR.t197 VGND VGND sky130_fd_pr__nfet_01v8 ad=0.143 pd=1.62 as=0 ps=0 w=0 l=0
* X94 VPWR VGND.t177 VPWR VPWR sky130_fd_pr__pfet_01v8_hvt ad=0.226 pd=2.26 as=0 ps=0 w=0 l=0
* X95 VGND VPWR.t162 VGND VGND sky130_fd_pr__nfet_01v8 ad=0.143 pd=1.62 as=0 ps=0 w=0 l=0
* X96 VPWR VGND.t46 VPWR VPWR sky130_fd_pr__pfet_01v8_hvt ad=0.226 pd=2.26 as=0 ps=0 w=0 l=0
* X97 VGND VPWR.t47 VGND VGND sky130_fd_pr__nfet_01v8 ad=0.143 pd=1.62 as=0 ps=0 w=0 l=0
* X98 VGND VPWR.t135 VGND VGND sky130_fd_pr__nfet_01v8 ad=0.143 pd=1.62 as=0 ps=0 w=0 l=0
* X99 VPWR VGND.t254 VPWR VPWR sky130_fd_pr__pfet_01v8_hvt ad=0.226 pd=2.26 as=0 ps=0 w=0 l=0
* X100 VGND VPWR.t128 VGND VGND sky130_fd_pr__nfet_01v8 ad=0.143 pd=1.62 as=0 ps=0 w=0 l=0
* X101 VPWR VGND.t86 VPWR VPWR sky130_fd_pr__pfet_01v8_hvt ad=0.226 pd=2.26 as=0 ps=0 w=0 l=0
* X102 VPWR VGND.t135 VPWR VPWR sky130_fd_pr__pfet_01v8_hvt ad=0.226 pd=2.26 as=0 ps=0 w=0 l=0
* X103 VGND VPWR.t202 VGND VGND sky130_fd_pr__nfet_01v8 ad=0.143 pd=1.62 as=0 ps=0 w=0 l=0
* X104 VPWR VGND.t171 VPWR VPWR sky130_fd_pr__pfet_01v8_hvt ad=0.226 pd=2.26 as=0 ps=0 w=0 l=0
* X105 VPWR VGND.t83 VPWR VPWR sky130_fd_pr__pfet_01v8_hvt ad=0.226 pd=2.26 as=0 ps=0 w=0 l=0
* X106 VGND VPWR.t65 VGND VGND sky130_fd_pr__nfet_01v8 ad=0.143 pd=1.62 as=0 ps=0 w=0 l=0
* X107 VPWR VGND.t236 VPWR VPWR sky130_fd_pr__pfet_01v8_hvt ad=0.226 pd=2.26 as=0 ps=0 w=0 l=0
* X108 VPWR VGND.t167 VPWR VPWR sky130_fd_pr__pfet_01v8_hvt ad=0.226 pd=2.26 as=0 ps=0 w=0 l=0
* X109 VPWR VGND.t109 VPWR VPWR sky130_fd_pr__pfet_01v8_hvt ad=0.226 pd=2.26 as=0 ps=0 w=0 l=0
* X110 VGND VPWR.t156 VGND VGND sky130_fd_pr__nfet_01v8 ad=0.143 pd=1.62 as=0 ps=0 w=0 l=0
* X111 VPWR VGND.t65 VPWR VPWR sky130_fd_pr__pfet_01v8_hvt ad=0.226 pd=2.26 as=0 ps=0 w=0 l=0
* X112 VPWR VGND.t40 VPWR VPWR sky130_fd_pr__pfet_01v8_hvt ad=0.226 pd=2.26 as=0 ps=0 w=0 l=0
* X113 VGND VPWR.t79 VGND VGND sky130_fd_pr__nfet_01v8 ad=0.143 pd=1.62 as=0 ps=0 w=0 l=0
* X114 VGND VPWR.t67 VGND VGND sky130_fd_pr__nfet_01v8 ad=0.143 pd=1.62 as=0 ps=0 w=0 l=0
* X115 VPWR VGND.t89 VPWR VPWR sky130_fd_pr__pfet_01v8_hvt ad=0.226 pd=2.26 as=0 ps=0 w=0 l=0
* X116 VPWR VGND.t19 VPWR VPWR sky130_fd_pr__pfet_01v8_hvt ad=0.226 pd=2.26 as=0 ps=0 w=0 l=0
* X117 VGND VPWR.t2 VGND VGND sky130_fd_pr__nfet_01v8 ad=0.143 pd=1.62 as=0 ps=0 w=0 l=0
* X118 VPWR VGND.t127 VPWR VPWR sky130_fd_pr__pfet_01v8_hvt ad=0.226 pd=2.26 as=0 ps=0 w=0 l=0
* X119 VGND VPWR.t116 VGND VGND sky130_fd_pr__nfet_01v8 ad=0.143 pd=1.62 as=0 ps=0 w=0 l=0
* X120 VPWR VGND.t20 VPWR VPWR sky130_fd_pr__pfet_01v8_hvt ad=0.226 pd=2.26 as=0 ps=0 w=0 l=0
* X121 VGND VPWR.t252 VGND VGND sky130_fd_pr__nfet_01v8 ad=0.143 pd=1.62 as=0 ps=0 w=0 l=0
* X122 VGND VPWR.t150 VGND VGND sky130_fd_pr__nfet_01v8 ad=0.143 pd=1.62 as=0 ps=0 w=0 l=0
* X123 VPWR VGND.t24 VPWR VPWR sky130_fd_pr__pfet_01v8_hvt ad=0.226 pd=2.26 as=0 ps=0 w=0 l=0
* X124 VGND VPWR.t31 VGND VGND sky130_fd_pr__nfet_01v8 ad=0.143 pd=1.62 as=0 ps=0 w=0 l=0
* X125 VGND VPWR.t90 VGND VGND sky130_fd_pr__nfet_01v8 ad=0.143 pd=1.62 as=0 ps=0 w=0 l=0
* X126 VPWR VGND.t95 VPWR VPWR sky130_fd_pr__pfet_01v8_hvt ad=0.226 pd=2.26 as=0 ps=0 w=0 l=0
* X127 VGND VPWR.t233 VGND VGND sky130_fd_pr__nfet_01v8 ad=0.143 pd=1.62 as=0 ps=0 w=0 l=0
* X128 VGND VPWR.t236 VGND VGND sky130_fd_pr__nfet_01v8 ad=0.143 pd=1.62 as=0 ps=0 w=0 l=0
* X129 VGND VPWR.t163 VGND VGND sky130_fd_pr__nfet_01v8 ad=0.143 pd=1.62 as=0 ps=0 w=0 l=0
* X130 VGND VPWR.t154 VGND VGND sky130_fd_pr__nfet_01v8 ad=0.143 pd=1.62 as=0 ps=0 w=0 l=0
* X131 VPWR VGND.t71 VPWR VPWR sky130_fd_pr__pfet_01v8_hvt ad=0.226 pd=2.26 as=0 ps=0 w=0 l=0
* X132 VGND VPWR.t118 VGND VGND sky130_fd_pr__nfet_01v8 ad=0.143 pd=1.62 as=0 ps=0 w=0 l=0
* X133 VGND VPWR.t97 VGND VGND sky130_fd_pr__nfet_01v8 ad=0.143 pd=1.62 as=0 ps=0 w=0 l=0
* X134 VGND VPWR.t61 VGND VGND sky130_fd_pr__nfet_01v8 ad=0.143 pd=1.62 as=0 ps=0 w=0 l=0
* X135 VPWR VGND.t136 VPWR VPWR sky130_fd_pr__pfet_01v8_hvt ad=0.226 pd=2.26 as=0 ps=0 w=0 l=0
* X136 VPWR VGND.t31 VPWR VPWR sky130_fd_pr__pfet_01v8_hvt ad=0.226 pd=2.26 as=0 ps=0 w=0 l=0
* X137 VPWR VGND.t137 VPWR VPWR sky130_fd_pr__pfet_01v8_hvt ad=0.226 pd=2.26 as=0 ps=0 w=0 l=0
* X138 VGND VPWR.t101 VGND VGND sky130_fd_pr__nfet_01v8 ad=0.143 pd=1.62 as=0 ps=0 w=0 l=0
* X139 VPWR VGND.t90 VPWR VPWR sky130_fd_pr__pfet_01v8_hvt ad=0.226 pd=2.26 as=0 ps=0 w=0 l=0
* X140 VGND VPWR.t195 VGND VGND sky130_fd_pr__nfet_01v8 ad=0.143 pd=1.62 as=0 ps=0 w=0 l=0
* X141 VGND VPWR.t228 VGND VGND sky130_fd_pr__nfet_01v8 ad=0.143 pd=1.62 as=0 ps=0 w=0 l=0
* X142 VGND VPWR.t180 VGND VGND sky130_fd_pr__nfet_01v8 ad=0.143 pd=1.62 as=0 ps=0 w=0 l=0
* X143 VPWR VGND.t179 VPWR VPWR sky130_fd_pr__pfet_01v8_hvt ad=0.226 pd=2.26 as=0 ps=0 w=0 l=0
* X144 VPWR VGND.t80 VPWR VPWR sky130_fd_pr__pfet_01v8_hvt ad=0.226 pd=2.26 as=0 ps=0 w=0 l=0
* X145 VGND VPWR.t81 VGND VGND sky130_fd_pr__nfet_01v8 ad=0.143 pd=1.62 as=0 ps=0 w=0 l=0
* X146 VPWR VGND.t41 VPWR VPWR sky130_fd_pr__pfet_01v8_hvt ad=0.226 pd=2.26 as=0 ps=0 w=0 l=0
* X147 VPWR VGND.t228 VPWR VPWR sky130_fd_pr__pfet_01v8_hvt ad=0.226 pd=2.26 as=0 ps=0 w=0 l=0
* X148 VPWR VGND.t120 VPWR VPWR sky130_fd_pr__pfet_01v8_hvt ad=0.226 pd=2.26 as=0 ps=0 w=0 l=0
* X149 VGND VPWR.t121 VGND VGND sky130_fd_pr__nfet_01v8 ad=0.143 pd=1.62 as=0 ps=0 w=0 l=0
* X150 VGND VPWR.t86 VGND VGND sky130_fd_pr__nfet_01v8 ad=0.143 pd=1.62 as=0 ps=0 w=0 l=0
* X151 VPWR VGND.t194 VPWR VPWR sky130_fd_pr__pfet_01v8_hvt ad=0.226 pd=2.26 as=0 ps=0 w=0 l=0
* X152 VPWR VGND.t214 VPWR VPWR sky130_fd_pr__pfet_01v8_hvt ad=0.226 pd=2.26 as=0 ps=0 w=0 l=0
* X153 VGND VPWR.t171 VGND VGND sky130_fd_pr__nfet_01v8 ad=0.143 pd=1.62 as=0 ps=0 w=0 l=0
* X154 VGND VPWR.t83 VGND VGND sky130_fd_pr__nfet_01v8 ad=0.143 pd=1.62 as=0 ps=0 w=0 l=0
* X155 VGND VPWR.t231 VGND VGND sky130_fd_pr__nfet_01v8 ad=0.143 pd=1.62 as=0 ps=0 w=0 l=0
* X156 VGND VPWR.t43 VGND VGND sky130_fd_pr__nfet_01v8 ad=0.143 pd=1.62 as=0 ps=0 w=0 l=0
* X157 VGND VPWR.t206 VGND VGND sky130_fd_pr__nfet_01v8 ad=0.143 pd=1.62 as=0 ps=0 w=0 l=0
* X158 VPWR VGND.t215 VPWR VPWR sky130_fd_pr__pfet_01v8_hvt ad=0.226 pd=2.26 as=0 ps=0 w=0 l=0
* X159 VPWR VGND.t199 VPWR VPWR sky130_fd_pr__pfet_01v8_hvt ad=0.226 pd=2.26 as=0 ps=0 w=0 l=0
* X160 VGND VPWR.t179 VGND VGND sky130_fd_pr__nfet_01v8 ad=0.143 pd=1.62 as=0 ps=0 w=0 l=0
* X161 VGND VPWR.t80 VGND VGND sky130_fd_pr__nfet_01v8 ad=0.143 pd=1.62 as=0 ps=0 w=0 l=0
* X162 VPWR clk.t0 clkbuf_0_clk/a_110_47# VPWR sky130_fd_pr__pfet_01v8_hvt ad=0.14 pd=1.28 as=0.14 ps=1.28 w=0 l=0
* X163 VGND VPWR.t112 VGND VGND sky130_fd_pr__nfet_01v8 ad=0.143 pd=1.62 as=0 ps=0 w=0 l=0
* X164 VPWR VGND.t206 VPWR VPWR sky130_fd_pr__pfet_01v8_hvt ad=0.226 pd=2.26 as=0 ps=0 w=0 l=0
* X165 VPWR VGND.t43 VPWR VPWR sky130_fd_pr__pfet_01v8_hvt ad=0.226 pd=2.26 as=0 ps=0 w=0 l=0
* X166 VPWR VGND.t218 VPWR VPWR sky130_fd_pr__pfet_01v8_hvt ad=0.226 pd=2.26 as=0 ps=0 w=0 l=0
* X167 VPWR VGND.t239 VPWR VPWR sky130_fd_pr__pfet_01v8_hvt ad=0.226 pd=2.26 as=0 ps=0 w=0 l=0
* X168 VPWR VGND.t134 VPWR VPWR sky130_fd_pr__pfet_01v8_hvt ad=0.226 pd=2.26 as=0 ps=0 w=0 l=0
* X169 VGND VPWR.t39 VGND VGND sky130_fd_pr__nfet_01v8 ad=0.143 pd=1.62 as=0 ps=0 w=0 l=0
* X170 VGND VPWR.t129 VGND VGND sky130_fd_pr__nfet_01v8 ad=0.143 pd=1.62 as=0 ps=0 w=0 l=0
* X171 VGND VPWR.t89 VGND VGND sky130_fd_pr__nfet_01v8 ad=0.143 pd=1.62 as=0 ps=0 w=0 l=0
* X172 VGND VPWR.t205 VGND VGND sky130_fd_pr__nfet_01v8 ad=0.143 pd=1.62 as=0 ps=0 w=0 l=0
* X173 VGND VPWR.t106 VGND VGND sky130_fd_pr__nfet_01v8 ad=0.143 pd=1.62 as=0 ps=0 w=0 l=0
* X174 VPWR VGND.t209 VPWR VPWR sky130_fd_pr__pfet_01v8_hvt ad=0.226 pd=2.26 as=0 ps=0 w=0 l=0
* X175 VGND VPWR.t5 VGND VGND sky130_fd_pr__nfet_01v8 ad=0.143 pd=1.62 as=0 ps=0 w=0 l=0
* X176 VPWR VGND.t129 VPWR VPWR sky130_fd_pr__pfet_01v8_hvt ad=0.226 pd=2.26 as=0 ps=0 w=0 l=0
* X177 VPWR VGND.t70 VPWR VPWR sky130_fd_pr__pfet_01v8_hvt ad=0.226 pd=2.26 as=0 ps=0 w=0 l=0
* X178 VPWR VGND.t170 VPWR VPWR sky130_fd_pr__pfet_01v8_hvt ad=0.226 pd=2.26 as=0 ps=0 w=0 l=0
* X179 VGND VPWR.t220 VGND VGND sky130_fd_pr__nfet_01v8 ad=0.143 pd=1.62 as=0 ps=0 w=0 l=0
* X180 VPWR VGND.t205 VPWR VPWR sky130_fd_pr__pfet_01v8_hvt ad=0.226 pd=2.26 as=0 ps=0 w=0 l=0
* X181 VPWR VGND.t104 VPWR VPWR sky130_fd_pr__pfet_01v8_hvt ad=0.226 pd=2.26 as=0 ps=0 w=0 l=0
* X182 VGND VPWR.t173 VGND VGND sky130_fd_pr__nfet_01v8 ad=0.143 pd=1.62 as=0 ps=0 w=0 l=0
* X183 VGND VPWR.t125 VGND VGND sky130_fd_pr__nfet_01v8 ad=0.143 pd=1.62 as=0 ps=0 w=0 l=0
* X184 VGND VPWR.t127 VGND VGND sky130_fd_pr__nfet_01v8 ad=0.143 pd=1.62 as=0 ps=0 w=0 l=0
* X185 VGND VPWR.t27 VGND VGND sky130_fd_pr__nfet_01v8 ad=0.143 pd=1.62 as=0 ps=0 w=0 l=0
* X186 VPWR VGND.t247 VPWR VPWR sky130_fd_pr__pfet_01v8_hvt ad=0.226 pd=2.26 as=0 ps=0 w=0 l=0
* X187 VGND VPWR.t71 VGND VGND sky130_fd_pr__nfet_01v8 ad=0.143 pd=1.62 as=0 ps=0 w=0 l=0
* X188 VPWR VGND.t4 VPWR VPWR sky130_fd_pr__pfet_01v8_hvt ad=0.226 pd=2.26 as=0 ps=0 w=0 l=0
* X189 VPWR VGND.t88 VPWR VPWR sky130_fd_pr__pfet_01v8_hvt ad=0.226 pd=2.26 as=0 ps=0 w=0 l=0
* X190 VPWR VGND.t173 VPWR VPWR sky130_fd_pr__pfet_01v8_hvt ad=0.226 pd=2.26 as=0 ps=0 w=0 l=0
* X191 VGND VPWR.t30 VGND VGND sky130_fd_pr__nfet_01v8 ad=0.143 pd=1.62 as=0 ps=0 w=0 l=0
* X192 VGND VPWR.t151 VGND VGND sky130_fd_pr__nfet_01v8 ad=0.143 pd=1.62 as=0 ps=0 w=0 l=0
* X193 VGND VPWR.t130 VGND VGND sky130_fd_pr__nfet_01v8 ad=0.143 pd=1.62 as=0 ps=0 w=0 l=0
* X194 VPWR VGND.t72 VPWR VPWR sky130_fd_pr__pfet_01v8_hvt ad=0.226 pd=2.26 as=0 ps=0 w=0 l=0
* X195 VPWR VGND.t223 VPWR VPWR sky130_fd_pr__pfet_01v8_hvt ad=0.226 pd=2.26 as=0 ps=0 w=0 l=0
* X196 VGND VPWR.t44 VGND VGND sky130_fd_pr__nfet_01v8 ad=0.143 pd=1.62 as=0 ps=0 w=0 l=0
* X197 VGND VPWR.t70 VGND VGND sky130_fd_pr__nfet_01v8 ad=0.143 pd=1.62 as=0 ps=0 w=0 l=0
* X198 VPWR VGND.t147 VPWR VPWR sky130_fd_pr__pfet_01v8_hvt ad=0.226 pd=2.26 as=0 ps=0 w=0 l=0
* X199 VPWR VGND.t102 VPWR VPWR sky130_fd_pr__pfet_01v8_hvt ad=0.226 pd=2.26 as=0 ps=0 w=0 l=0
* X200 VPWR VGND.t30 VPWR VPWR sky130_fd_pr__pfet_01v8_hvt ad=0.226 pd=2.26 as=0 ps=0 w=0 l=0
* X201 VGND VPWR.t66 VGND VGND sky130_fd_pr__nfet_01v8 ad=0.143 pd=1.62 as=0 ps=0 w=0 l=0
* X202 VGND VPWR.t182 VGND VGND sky130_fd_pr__nfet_01v8 ad=0.143 pd=1.62 as=0 ps=0 w=0 l=0
* X203 VGND VPWR.t41 VGND VGND sky130_fd_pr__nfet_01v8 ad=0.143 pd=1.62 as=0 ps=0 w=0 l=0
* X204 VPWR VGND.t44 VPWR VPWR sky130_fd_pr__pfet_01v8_hvt ad=0.226 pd=2.26 as=0 ps=0 w=0 l=0
* X205 clkbuf_0_clk/a_110_47# clk.t3 VPWR VPWR sky130_fd_pr__pfet_01v8_hvt ad=0.14 pd=1.28 as=0.14 ps=1.28 w=0 l=0
* X206 VGND VPWR.t68 VGND VGND sky130_fd_pr__nfet_01v8 ad=0.143 pd=1.62 as=0 ps=0 w=0 l=0
* X207 VGND VPWR.t183 VGND VGND sky130_fd_pr__nfet_01v8 ad=0.143 pd=1.62 as=0 ps=0 w=0 l=0
* X208 VPWR VGND.t98 VPWR VPWR sky130_fd_pr__pfet_01v8_hvt ad=0.226 pd=2.26 as=0 ps=0 w=0 l=0
* X209 VPWR VGND.t96 VPWR VPWR sky130_fd_pr__pfet_01v8_hvt ad=0.226 pd=2.26 as=0 ps=0 w=0 l=0
* X210 VGND VPWR.t4 VGND VGND sky130_fd_pr__nfet_01v8 ad=0.143 pd=1.62 as=0 ps=0 w=0 l=0
* X211 VGND VPWR.t214 VGND VGND sky130_fd_pr__nfet_01v8 ad=0.143 pd=1.62 as=0 ps=0 w=0 l=0
* X212 VGND VPWR.t166 VGND VGND sky130_fd_pr__nfet_01v8 ad=0.143 pd=1.62 as=0 ps=0 w=0 l=0
* X213 VPWR VGND.t156 VPWR VPWR sky130_fd_pr__pfet_01v8_hvt ad=0.226 pd=2.26 as=0 ps=0 w=0 l=0
* X214 VPWR VGND.t232 VPWR VPWR sky130_fd_pr__pfet_01v8_hvt ad=0.226 pd=2.26 as=0 ps=0 w=0 l=0
* X215 VGND VPWR.t199 VGND VGND sky130_fd_pr__nfet_01v8 ad=0.143 pd=1.62 as=0 ps=0 w=0 l=0
* X216 VGND VPWR.t157 VGND VGND sky130_fd_pr__nfet_01v8 ad=0.143 pd=1.62 as=0 ps=0 w=0 l=0
* X217 VPWR VGND.t91 VPWR VPWR sky130_fd_pr__pfet_01v8_hvt ad=0.226 pd=2.26 as=0 ps=0 w=0 l=0
* X218 VPWR VGND.t162 VPWR VPWR sky130_fd_pr__pfet_01v8_hvt ad=0.226 pd=2.26 as=0 ps=0 w=0 l=0
* X219 VPWR VGND.t128 VPWR VPWR sky130_fd_pr__pfet_01v8_hvt ad=0.226 pd=2.26 as=0 ps=0 w=0 l=0
* X220 VGND VPWR.t6 VGND VGND sky130_fd_pr__nfet_01v8 ad=0.143 pd=1.62 as=0 ps=0 w=0 l=0
* X221 VPWR VGND.t53 VPWR VPWR sky130_fd_pr__pfet_01v8_hvt ad=0.226 pd=2.26 as=0 ps=0 w=0 l=0
* X222 VGND VPWR.t239 VGND VGND sky130_fd_pr__nfet_01v8 ad=0.143 pd=1.62 as=0 ps=0 w=0 l=0
* X223 VPWR VGND.t141 VPWR VPWR sky130_fd_pr__pfet_01v8_hvt ad=0.226 pd=2.26 as=0 ps=0 w=0 l=0
* X224 VPWR VGND.t47 VPWR VPWR sky130_fd_pr__pfet_01v8_hvt ad=0.226 pd=2.26 as=0 ps=0 w=0 l=0
* X225 VPWR VGND.t150 VPWR VPWR sky130_fd_pr__pfet_01v8_hvt ad=0.226 pd=2.26 as=0 ps=0 w=0 l=0
* X226 VGND VPWR.t250 VGND VGND sky130_fd_pr__nfet_01v8 ad=0.143 pd=1.62 as=0 ps=0 w=0 l=0
* X227 VPWR VGND.t111 VPWR VPWR sky130_fd_pr__pfet_01v8_hvt ad=0.226 pd=2.26 as=0 ps=0 w=0 l=0
* X228 VGND VPWR.t105 VGND VGND sky130_fd_pr__nfet_01v8 ad=0.143 pd=1.62 as=0 ps=0 w=0 l=0
* X229 clkbuf_0_clk/a_110_47# clk.t6 VGND VGND sky130_fd_pr__nfet_01v8 ad=0.0588 pd=0.7 as=0.111 ps=1.37 w=0 l=0
* X230 VGND VPWR.t189 VGND VGND sky130_fd_pr__nfet_01v8 ad=0.143 pd=1.62 as=0 ps=0 w=0 l=0
* X231 VGND VPWR.t172 VGND VGND sky130_fd_pr__nfet_01v8 ad=0.143 pd=1.62 as=0 ps=0 w=0 l=0
* X232 VGND VPWR.t170 VGND VGND sky130_fd_pr__nfet_01v8 ad=0.143 pd=1.62 as=0 ps=0 w=0 l=0
* X233 VGND VPWR.t58 VGND VGND sky130_fd_pr__nfet_01v8 ad=0.143 pd=1.62 as=0 ps=0 w=0 l=0
* X234 VPWR VGND.t1 VPWR VPWR sky130_fd_pr__pfet_01v8_hvt ad=0.226 pd=2.26 as=0 ps=0 w=0 l=0
* X235 VPWR VGND.t36 VPWR VPWR sky130_fd_pr__pfet_01v8_hvt ad=0.226 pd=2.26 as=0 ps=0 w=0 l=0
* X236 VGND VPWR.t55 VGND VGND sky130_fd_pr__nfet_01v8 ad=0.143 pd=1.62 as=0 ps=0 w=0 l=0
* X237 VPWR VGND.t195 VPWR VPWR sky130_fd_pr__pfet_01v8_hvt ad=0.226 pd=2.26 as=0 ps=0 w=0 l=0
* X238 VPWR VGND.t189 VPWR VPWR sky130_fd_pr__pfet_01v8_hvt ad=0.226 pd=2.26 as=0 ps=0 w=0 l=0
* X239 VGND VPWR.t77 VGND VGND sky130_fd_pr__nfet_01v8 ad=0.143 pd=1.62 as=0 ps=0 w=0 l=0
* X240 VPWR VGND.t67 VPWR VPWR sky130_fd_pr__pfet_01v8_hvt ad=0.226 pd=2.26 as=0 ps=0 w=0 l=0
* X241 VGND VPWR.t232 VGND VGND sky130_fd_pr__nfet_01v8 ad=0.143 pd=1.62 as=0 ps=0 w=0 l=0
* X242 VGND VPWR.t15 VGND VGND sky130_fd_pr__nfet_01v8 ad=0.143 pd=1.62 as=0 ps=0 w=0 l=0
* X243 VPWR VGND.t79 VPWR VPWR sky130_fd_pr__pfet_01v8_hvt ad=0.226 pd=2.26 as=0 ps=0 w=0 l=0
* X244 VGND VPWR.t45 VGND VGND sky130_fd_pr__nfet_01v8 ad=0.143 pd=1.62 as=0 ps=0 w=0 l=0
* X245 VPWR VGND.t196 VPWR VPWR sky130_fd_pr__pfet_01v8_hvt ad=0.226 pd=2.26 as=0 ps=0 w=0 l=0
* X246 VPWR VGND.t34 VPWR VPWR sky130_fd_pr__pfet_01v8_hvt ad=0.226 pd=2.26 as=0 ps=0 w=0 l=0
* X247 VPWR VGND.t55 VPWR VPWR sky130_fd_pr__pfet_01v8_hvt ad=0.226 pd=2.26 as=0 ps=0 w=0 l=0
* X248 VPWR clk.t7 clkbuf_0_clk/a_110_47# VPWR sky130_fd_pr__pfet_01v8_hvt ad=0.14 pd=1.28 as=0.14 ps=1.28 w=0 l=0
* X249 VGND VPWR.t88 VGND VGND sky130_fd_pr__nfet_01v8 ad=0.143 pd=1.62 as=0 ps=0 w=0 l=0
* X250 VGND VPWR.t223 VGND VGND sky130_fd_pr__nfet_01v8 ad=0.143 pd=1.62 as=0 ps=0 w=0 l=0
* X251 VPWR VGND.t132 VPWR VPWR sky130_fd_pr__pfet_01v8_hvt ad=0.226 pd=2.26 as=0 ps=0 w=0 l=0
* X252 VGND VPWR.t147 VGND VGND sky130_fd_pr__nfet_01v8 ad=0.143 pd=1.62 as=0 ps=0 w=0 l=0
* X253 VGND VPWR.t102 VGND VGND sky130_fd_pr__nfet_01v8 ad=0.143 pd=1.62 as=0 ps=0 w=0 l=0
* X254 VPWR VGND.t153 VPWR VPWR sky130_fd_pr__pfet_01v8_hvt ad=0.226 pd=2.26 as=0 ps=0 w=0 l=0
* X255 VGND VPWR.t139 VGND VGND sky130_fd_pr__nfet_01v8 ad=0.143 pd=1.62 as=0 ps=0 w=0 l=0
* X256 VPWR VGND.t116 VPWR VPWR sky130_fd_pr__pfet_01v8_hvt ad=0.226 pd=2.26 as=0 ps=0 w=0 l=0
* X257 VGND VPWR.t144 VGND VGND sky130_fd_pr__nfet_01v8 ad=0.143 pd=1.62 as=0 ps=0 w=0 l=0
* X258 VGND VPWR.t174 VGND VGND sky130_fd_pr__nfet_01v8 ad=0.143 pd=1.62 as=0 ps=0 w=0 l=0
* X259 VGND VPWR.t138 VGND VGND sky130_fd_pr__nfet_01v8 ad=0.143 pd=1.62 as=0 ps=0 w=0 l=0
* X260 VPWR VGND.t97 VPWR VPWR sky130_fd_pr__pfet_01v8_hvt ad=0.226 pd=2.26 as=0 ps=0 w=0 l=0
* X261 VPWR VGND.t8 VPWR VPWR sky130_fd_pr__pfet_01v8_hvt ad=0.226 pd=2.26 as=0 ps=0 w=0 l=0
* X262 VPWR VGND.t152 VPWR VPWR sky130_fd_pr__pfet_01v8_hvt ad=0.226 pd=2.26 as=0 ps=0 w=0 l=0
* X263 VGND VPWR.t132 VGND VGND sky130_fd_pr__nfet_01v8 ad=0.143 pd=1.62 as=0 ps=0 w=0 l=0
* X264 VGND VPWR.t69 VGND VGND sky130_fd_pr__nfet_01v8 ad=0.143 pd=1.62 as=0 ps=0 w=0 l=0
* X265 VPWR VGND.t231 VPWR VPWR sky130_fd_pr__pfet_01v8_hvt ad=0.226 pd=2.26 as=0 ps=0 w=0 l=0
* X266 VGND VPWR.t14 VGND VGND sky130_fd_pr__nfet_01v8 ad=0.143 pd=1.62 as=0 ps=0 w=0 l=0
* X267 VGND VPWR.t98 VGND VGND sky130_fd_pr__nfet_01v8 ad=0.143 pd=1.62 as=0 ps=0 w=0 l=0
* X268 VPWR VGND.t165 VPWR VPWR sky130_fd_pr__pfet_01v8_hvt ad=0.226 pd=2.26 as=0 ps=0 w=0 l=0
* X269 VPWR VGND.t154 VPWR VPWR sky130_fd_pr__pfet_01v8_hvt ad=0.226 pd=2.26 as=0 ps=0 w=0 l=0
* X270 VGND VPWR.t115 VGND VGND sky130_fd_pr__nfet_01v8 ad=0.143 pd=1.62 as=0 ps=0 w=0 l=0
* X271 VGND VPWR.t169 VGND VGND sky130_fd_pr__nfet_01v8 ad=0.143 pd=1.62 as=0 ps=0 w=0 l=0
* X272 VGND VPWR.t158 VGND VGND sky130_fd_pr__nfet_01v8 ad=0.143 pd=1.62 as=0 ps=0 w=0 l=0
* X273 VPWR VGND.t61 VPWR VPWR sky130_fd_pr__pfet_01v8_hvt ad=0.226 pd=2.26 as=0 ps=0 w=0 l=0
* X274 VPWR VGND.t191 VPWR VPWR sky130_fd_pr__pfet_01v8_hvt ad=0.226 pd=2.26 as=0 ps=0 w=0 l=0
* X275 VPWR VGND.t180 VPWR VPWR sky130_fd_pr__pfet_01v8_hvt ad=0.226 pd=2.26 as=0 ps=0 w=0 l=0
* X276 VPWR VGND.t69 VPWR VPWR sky130_fd_pr__pfet_01v8_hvt ad=0.226 pd=2.26 as=0 ps=0 w=0 l=0
* X277 VPWR VGND.t39 VPWR VPWR sky130_fd_pr__pfet_01v8_hvt ad=0.226 pd=2.26 as=0 ps=0 w=0 l=0
* X278 VGND VPWR.t126 VGND VGND sky130_fd_pr__nfet_01v8 ad=0.143 pd=1.62 as=0 ps=0 w=0 l=0
* X279 VGND VPWR.t23 VGND VGND sky130_fd_pr__nfet_01v8 ad=0.143 pd=1.62 as=0 ps=0 w=0 l=0
* X280 VGND VPWR.t133 VGND VGND sky130_fd_pr__nfet_01v8 ad=0.143 pd=1.62 as=0 ps=0 w=0 l=0
* X281 VGND VPWR.t108 VGND VGND sky130_fd_pr__nfet_01v8 ad=0.143 pd=1.62 as=0 ps=0 w=0 l=0
* X282 VPWR VGND.t121 VPWR VPWR sky130_fd_pr__pfet_01v8_hvt ad=0.226 pd=2.26 as=0 ps=0 w=0 l=0
* X283 VGND VPWR.t53 VGND VGND sky130_fd_pr__nfet_01v8 ad=0.143 pd=1.62 as=0 ps=0 w=0 l=0
* X284 VGND VPWR.t141 VGND VGND sky130_fd_pr__nfet_01v8 ad=0.143 pd=1.62 as=0 ps=0 w=0 l=0
* X285 VPWR VGND.t81 VPWR VPWR sky130_fd_pr__pfet_01v8_hvt ad=0.226 pd=2.26 as=0 ps=0 w=0 l=0
* X286 VPWR VGND.t220 VPWR VPWR sky130_fd_pr__pfet_01v8_hvt ad=0.226 pd=2.26 as=0 ps=0 w=0 l=0
* X287 VGND VPWR.t100 VGND VGND sky130_fd_pr__nfet_01v8 ad=0.143 pd=1.62 as=0 ps=0 w=0 l=0
* X288 VGND VPWR.t13 VGND VGND sky130_fd_pr__nfet_01v8 ad=0.143 pd=1.62 as=0 ps=0 w=0 l=0
* X289 VGND VPWR.t22 VGND VGND sky130_fd_pr__nfet_01v8 ad=0.143 pd=1.62 as=0 ps=0 w=0 l=0
* X290 VPWR VGND.t245 VPWR VPWR sky130_fd_pr__pfet_01v8_hvt ad=0.226 pd=2.26 as=0 ps=0 w=0 l=0
* X291 VGND VPWR.t111 VGND VGND sky130_fd_pr__nfet_01v8 ad=0.143 pd=1.62 as=0 ps=0 w=0 l=0
* X292 VGND VPWR.t191 VGND VGND sky130_fd_pr__nfet_01v8 ad=0.143 pd=1.62 as=0 ps=0 w=0 l=0
* X293 VGND VPWR.t56 VGND VGND sky130_fd_pr__nfet_01v8 ad=0.143 pd=1.62 as=0 ps=0 w=0 l=0
* X294 VGND VPWR.t60 VGND VGND sky130_fd_pr__nfet_01v8 ad=0.143 pd=1.62 as=0 ps=0 w=0 l=0
* X295 VGND VPWR.t152 VGND VGND sky130_fd_pr__nfet_01v8 ad=0.143 pd=1.62 as=0 ps=0 w=0 l=0
* X296 VGND VPWR.t1 VGND VGND sky130_fd_pr__nfet_01v8 ad=0.143 pd=1.62 as=0 ps=0 w=0 l=0
* X297 VGND VPWR.t36 VGND VGND sky130_fd_pr__nfet_01v8 ad=0.143 pd=1.62 as=0 ps=0 w=0 l=0
* X298 VGND VPWR.t99 VGND VGND sky130_fd_pr__nfet_01v8 ad=0.143 pd=1.62 as=0 ps=0 w=0 l=0
* X299 VPWR VGND.t87 VPWR VPWR sky130_fd_pr__pfet_01v8_hvt ad=0.226 pd=2.26 as=0 ps=0 w=0 l=0
* X300 VPWR VGND.t56 VPWR VPWR sky130_fd_pr__pfet_01v8_hvt ad=0.226 pd=2.26 as=0 ps=0 w=0 l=0
* X301 VPWR VGND.t66 VPWR VPWR sky130_fd_pr__pfet_01v8_hvt ad=0.226 pd=2.26 as=0 ps=0 w=0 l=0
* X302 VGND VPWR.t196 VGND VGND sky130_fd_pr__nfet_01v8 ad=0.143 pd=1.62 as=0 ps=0 w=0 l=0
* X303 VPWR VGND.t182 VPWR VPWR sky130_fd_pr__pfet_01v8_hvt ad=0.226 pd=2.26 as=0 ps=0 w=0 l=0
* X304 VGND VPWR.t34 VGND VGND sky130_fd_pr__nfet_01v8 ad=0.143 pd=1.62 as=0 ps=0 w=0 l=0
* X305 VGND VPWR.t64 VGND VGND sky130_fd_pr__nfet_01v8 ad=0.143 pd=1.62 as=0 ps=0 w=0 l=0
* X306 VPWR VGND.t76 VPWR VPWR sky130_fd_pr__pfet_01v8_hvt ad=0.226 pd=2.26 as=0 ps=0 w=0 l=0
* X307 VPWR VGND.t149 VPWR VPWR sky130_fd_pr__pfet_01v8_hvt ad=0.226 pd=2.26 as=0 ps=0 w=0 l=0
* X308 VPWR VGND.t106 VPWR VPWR sky130_fd_pr__pfet_01v8_hvt ad=0.226 pd=2.26 as=0 ps=0 w=0 l=0
* X309 VPWR VGND.t35 VPWR VPWR sky130_fd_pr__pfet_01v8_hvt ad=0.226 pd=2.26 as=0 ps=0 w=0 l=0
* X310 VPWR VGND.t27 VPWR VPWR sky130_fd_pr__pfet_01v8_hvt ad=0.226 pd=2.26 as=0 ps=0 w=0 l=0
* X311 VPWR VGND.t249 VPWR VPWR sky130_fd_pr__pfet_01v8_hvt ad=0.226 pd=2.26 as=0 ps=0 w=0 l=0
* X312 VGND clk.t5 clkbuf_0_clk/a_110_47# VGND sky130_fd_pr__nfet_01v8 ad=0.0588 pd=0.7 as=0.0588 ps=0.7 w=0 l=0
* X313 VPWR VGND.t157 VPWR VPWR sky130_fd_pr__pfet_01v8_hvt ad=0.226 pd=2.26 as=0 ps=0 w=0 l=0
* X314 VPWR VGND.t3 VPWR VPWR sky130_fd_pr__pfet_01v8_hvt ad=0.226 pd=2.26 as=0 ps=0 w=0 l=0
* X315 VPWR VGND.t151 VPWR VPWR sky130_fd_pr__pfet_01v8_hvt ad=0.226 pd=2.26 as=0 ps=0 w=0 l=0
* X316 VGND VPWR.t225 VGND VGND sky130_fd_pr__nfet_01v8 ad=0.143 pd=1.62 as=0 ps=0 w=0 l=0
* X317 VGND VPWR.t200 VGND VGND sky130_fd_pr__nfet_01v8 ad=0.143 pd=1.62 as=0 ps=0 w=0 l=0
* X318 VGND VPWR.t110 VGND VGND sky130_fd_pr__nfet_01v8 ad=0.143 pd=1.62 as=0 ps=0 w=0 l=0