* SPICE3 file created from sarlogic.ext - technology: sky130B

.subckt sky130_fd_sc_hd__or2_1 A B VGND VNB VPB VPWR X a_150_297# a_68_297#
X0 VGND A a_68_297# VNB sky130_fd_pr__nfet_01v8 ad=0.1 pd=0.985 as=0.0567 ps=0.69 w=0.42 l=0.15
X1 a_68_297# B VGND VNB sky130_fd_pr__nfet_01v8 ad=0.0567 pd=0.69 as=0.109 ps=1.36 w=0.42 l=0.15
X2 X a_68_297# VGND VNB sky130_fd_pr__nfet_01v8 ad=0.169 pd=1.82 as=0.1 ps=0.985 w=0.65 l=0.15
X3 VPWR A a_150_297# VPB sky130_fd_pr__pfet_01v8_hvt ad=0.146 pd=1.34 as=0.0441 ps=0.63 w=0.42 l=0.15
X4 X a_68_297# VPWR VPB sky130_fd_pr__pfet_01v8_hvt ad=0.34 pd=2.68 as=0.146 ps=1.34 w=1 l=0.15
X5 a_150_297# B a_68_297# VPB sky130_fd_pr__pfet_01v8_hvt ad=0.0441 pd=0.63 as=0.109 ps=1.36 w=0.42 l=0.15
C0 a_68_297# a_150_297# 0.00477f
C1 X a_150_297# 4.96e-19
C2 VPB a_68_297# 0.0611f
C3 B A 0.0751f
C4 VPWR A 0.00846f
C5 VPB X 0.0209f
C6 B VGND 0.0437f
C7 VPWR VGND 0.0464f
C8 a_150_297# VGND 4.62e-19
C9 VPB A 0.031f
C10 VPWR B 0.00855f
C11 X a_68_297# 0.105f
C12 VPB VGND 0.0112f
C13 VPWR a_150_297# 0.00193f
C14 VPB B 0.0462f
C15 A a_68_297# 0.158f
C16 VPB VPWR 0.0805f
C17 A X 0.0131f
C18 a_68_297# VGND 0.118f
C19 X VGND 0.114f
C20 B a_68_297# 0.0984f
C21 VPWR a_68_297# 0.089f
C22 B X 1.65e-19
C23 VPWR X 0.129f
C24 A VGND 0.0347f
C25 VGND VNB 0.32f
C26 X VNB 0.101f
C27 A VNB 0.111f
C28 B VNB 0.183f
C29 VPWR VNB 0.269f
C30 VPB VNB 0.516f
C31 a_68_297# VNB 0.154f
.ends

.subckt sky130_fd_sc_hd__decap_3 VGND VNB VPB VPWR
X0 VPWR VGND VPWR VPB sky130_fd_pr__pfet_01v8_hvt ad=0.226 pd=2.26 as=0.452 ps=4.52 w=0.87 l=0.59
X1 VGND VPWR VGND VNB sky130_fd_pr__nfet_01v8 ad=0.143 pd=1.62 as=0.286 ps=3.24 w=0.55 l=0.59
C0 VGND VPWR 0.353f
C1 VPB VPWR 0.0625f
C2 VPB VGND 0.0797f
C3 VPWR VNB 0.47f
C4 VGND VNB 0.427f
C5 VPB VNB 0.339f
.ends

.subckt sky130_ef_sc_hd__decap_12 VGND VPWR VPB VNB
X0 VPWR VGND VPWR VPB sky130_fd_pr__pfet_01v8_hvt ad=0.226 pd=2.26 as=0.452 ps=4.52 w=0.87 l=4.73
X1 VGND VPWR VGND VNB sky130_fd_pr__nfet_01v8 ad=0.143 pd=1.62 as=0.286 ps=3.24 w=0.55 l=4.73
C0 VGND VPWR 1.57f
C1 VPB VPWR 0.137f
C2 VPB VGND 0.35f
C3 VPWR VNB 1.67f
C4 VGND VNB 1.47f
C5 VPB VNB 1.14f
.ends

.subckt sky130_fd_sc_hd__clkbuf_1 A VGND VNB VPB VPWR X a_75_212#
X0 VPWR a_75_212# X VPB sky130_fd_pr__pfet_01v8_hvt ad=0.115 pd=1.08 as=0.205 ps=2.1 w=0.79 l=0.15
X1 a_75_212# A VGND VNB sky130_fd_pr__nfet_01v8 ad=0.135 pd=1.56 as=0.0754 ps=0.81 w=0.52 l=0.15
X2 a_75_212# A VPWR VPB sky130_fd_pr__pfet_01v8_hvt ad=0.205 pd=2.1 as=0.115 ps=1.08 w=0.79 l=0.15
X3 VGND a_75_212# X VNB sky130_fd_pr__nfet_01v8 ad=0.0754 pd=0.81 as=0.135 ps=1.56 w=0.52 l=0.15
C0 VPB A 0.0525f
C1 a_75_212# X 0.107f
C2 X VGND 0.0545f
C3 VPB VPWR 0.0355f
C4 a_75_212# A 0.178f
C5 A VGND 0.0184f
C6 a_75_212# VPWR 0.134f
C7 VGND VPWR 0.0289f
C8 a_75_212# VPB 0.0571f
C9 VPB VGND 0.00507f
C10 A X 8.48e-19
C11 X VPWR 0.0896f
C12 VPB X 0.0128f
C13 a_75_212# VGND 0.105f
C14 A VPWR 0.0217f
C15 VGND VNB 0.207f
C16 VPWR VNB 0.176f
C17 X VNB 0.0942f
C18 A VNB 0.164f
C19 VPB VNB 0.339f
C20 a_75_212# VNB 0.21f
.ends

.subckt sky130_fd_sc_hd__a31o_1 A1 A2 A3 B1 VGND VNB VPB VPWR X a_80_21# a_209_297#
+ a_209_47# a_303_47#
X0 VPWR a_80_21# X VPB sky130_fd_pr__pfet_01v8_hvt ad=0.172 pd=1.35 as=0.265 ps=2.53 w=1 l=0.15
X1 a_209_297# A3 VPWR VPB sky130_fd_pr__pfet_01v8_hvt ad=0.16 pd=1.32 as=0.172 ps=1.35 w=1 l=0.15
X2 a_303_47# A2 a_209_47# VNB sky130_fd_pr__nfet_01v8 ad=0.107 pd=0.98 as=0.104 ps=0.97 w=0.65 l=0.15
X3 a_209_47# A3 VGND VNB sky130_fd_pr__nfet_01v8 ad=0.104 pd=0.97 as=0.112 ps=0.995 w=0.65 l=0.15
X4 VGND a_80_21# X VNB sky130_fd_pr__nfet_01v8 ad=0.112 pd=0.995 as=0.172 ps=1.83 w=0.65 l=0.15
X5 VGND B1 a_80_21# VNB sky130_fd_pr__nfet_01v8 ad=0.208 pd=1.94 as=0.107 ps=0.98 w=0.65 l=0.15
X6 a_80_21# A1 a_303_47# VNB sky130_fd_pr__nfet_01v8 ad=0.107 pd=0.98 as=0.107 ps=0.98 w=0.65 l=0.15
X7 VPWR A2 a_209_297# VPB sky130_fd_pr__pfet_01v8_hvt ad=0.165 pd=1.33 as=0.16 ps=1.32 w=1 l=0.15
X8 a_80_21# B1 a_209_297# VPB sky130_fd_pr__pfet_01v8_hvt ad=0.32 pd=2.64 as=0.165 ps=1.33 w=1 l=0.15
X9 a_209_297# A1 VPWR VPB sky130_fd_pr__pfet_01v8_hvt ad=0.165 pd=1.33 as=0.165 ps=1.33 w=1 l=0.15
C0 A2 X 3.42e-19
C1 A1 B1 0.101f
C2 a_209_297# a_303_47# 1.26e-19
C3 VGND X 0.0572f
C4 a_209_297# B1 0.00622f
C5 a_80_21# X 0.0765f
C6 A3 X 0.00625f
C7 VPB X 0.0108f
C8 X VPWR 0.117f
C9 a_303_47# A2 3.38e-19
C10 a_209_297# A1 0.0378f
C11 a_303_47# VGND 0.00661f
C12 a_209_297# a_209_47# 6.96e-20
C13 a_80_21# a_303_47# 0.0115f
C14 VGND B1 0.0172f
C15 a_80_21# B1 0.111f
C16 VPB B1 0.0342f
C17 a_303_47# VPWR 0.00105f
C18 B1 VPWR 0.0177f
C19 A2 A1 0.104f
C20 VGND A1 0.0135f
C21 a_80_21# A1 0.0367f
C22 a_209_297# A2 0.0366f
C23 VPB A1 0.0287f
C24 a_209_47# VGND 0.00696f
C25 a_209_297# VGND 0.0043f
C26 a_80_21# a_209_47# 0.0101f
C27 A3 a_209_47# 3.56e-19
C28 a_80_21# a_209_297# 0.0626f
C29 A1 VPWR 0.018f
C30 A3 a_209_297# 0.0268f
C31 a_209_297# VPB 0.00284f
C32 a_303_47# X 6.01e-19
C33 a_209_47# VPWR 0.00102f
C34 a_209_297# VPWR 0.205f
C35 VGND A2 0.0148f
C36 a_80_21# A2 0.0357f
C37 A3 A2 0.109f
C38 VPB A2 0.0285f
C39 a_80_21# VGND 0.216f
C40 A3 VGND 0.0169f
C41 VPB VGND 0.00769f
C42 A2 VPWR 0.0227f
C43 A1 X 1.56e-19
C44 A3 a_80_21# 0.117f
C45 a_80_21# VPB 0.051f
C46 A3 VPB 0.0297f
C47 VGND VPWR 0.0662f
C48 a_209_47# X 9.76e-19
C49 a_80_21# VPWR 0.0992f
C50 A3 VPWR 0.0403f
C51 VPB VPWR 0.0715f
C52 VGND VNB 0.41f
C53 VPWR VNB 0.332f
C54 X VNB 0.0895f
C55 B1 VNB 0.115f
C56 A1 VNB 0.0897f
C57 A2 VNB 0.0896f
C58 A3 VNB 0.0899f
C59 VPB VNB 0.693f
C60 a_209_297# VNB 0.00621f
C61 a_80_21# VNB 0.211f
.ends

.subckt sky130_fd_sc_hd__dfrtp_1 CLK D RESET_B VGND VNB VPB VPWR Q a_1462_47# a_543_47#
+ a_651_413# a_193_47# a_805_47# a_448_47# a_639_47# a_1283_21# a_761_289# a_1108_47#
+ a_1217_47# a_1270_413# a_27_47#
X0 a_1217_47# a_27_47# a_1108_47# VNB sky130_fd_pr__nfet_01v8 ad=0.0669 pd=0.75 as=0.0711 ps=0.755 w=0.36 l=0.15
X1 a_805_47# a_761_289# a_639_47# VNB sky130_fd_pr__nfet_01v8 ad=0.0441 pd=0.63 as=0.14 ps=1.1 w=0.42 l=0.15
X2 a_1108_47# a_193_47# a_761_289# VNB sky130_fd_pr__nfet_01v8 ad=0.0711 pd=0.755 as=0.0999 ps=0.985 w=0.36 l=0.15
X3 a_1283_21# a_1108_47# a_1462_47# VNB sky130_fd_pr__nfet_01v8 ad=0.109 pd=1.36 as=0.064 ps=0.725 w=0.42 l=0.15
X4 a_651_413# a_27_47# a_543_47# VPB sky130_fd_pr__pfet_01v8_hvt ad=0.116 pd=0.97 as=0.0724 ps=0.765 w=0.42 l=0.15
X5 VGND RESET_B a_805_47# VNB sky130_fd_pr__nfet_01v8 ad=0.135 pd=1.15 as=0.0441 ps=0.63 w=0.42 l=0.15
X6 Q a_1283_21# VPWR VPB sky130_fd_pr__pfet_01v8_hvt ad=0.26 pd=2.52 as=0.301 ps=2.66 w=1 l=0.15
X7 VPWR CLK a_27_47# VPB sky130_fd_pr__pfet_01v8_hvt ad=0.0864 pd=0.91 as=0.166 ps=1.8 w=0.64 l=0.15
X8 a_448_47# D VPWR VPB sky130_fd_pr__pfet_01v8_hvt ad=0.0651 pd=0.73 as=0.109 ps=1.36 w=0.42 l=0.15
X9 a_761_289# a_543_47# VGND VNB sky130_fd_pr__nfet_01v8 ad=0.0999 pd=0.985 as=0.135 ps=1.15 w=0.64 l=0.15
X10 a_193_47# a_27_47# VGND VNB sky130_fd_pr__nfet_01v8 ad=0.109 pd=1.36 as=0.0567 ps=0.69 w=0.42 l=0.15
X11 a_1108_47# a_27_47# a_761_289# VPB sky130_fd_pr__pfet_01v8_hvt ad=0.0588 pd=0.7 as=0.129 ps=1.18 w=0.42 l=0.15
X12 a_543_47# a_27_47# a_448_47# VNB sky130_fd_pr__nfet_01v8 ad=0.0594 pd=0.69 as=0.066 ps=0.745 w=0.36 l=0.15
X13 a_1462_47# RESET_B VGND VNB sky130_fd_pr__nfet_01v8 ad=0.064 pd=0.725 as=0.125 ps=1.01 w=0.42 l=0.15
X14 a_543_47# a_193_47# a_448_47# VPB sky130_fd_pr__pfet_01v8_hvt ad=0.0724 pd=0.765 as=0.0651 ps=0.73 w=0.42 l=0.15
X15 a_448_47# D VGND VNB sky130_fd_pr__nfet_01v8 ad=0.066 pd=0.745 as=0.221 ps=1.89 w=0.42 l=0.15
X16 VPWR a_1283_21# a_1270_413# VPB sky130_fd_pr__pfet_01v8_hvt ad=0.0819 pd=0.81 as=0.0567 ps=0.69 w=0.42 l=0.15
X17 VPWR a_1108_47# a_1283_21# VPB sky130_fd_pr__pfet_01v8_hvt ad=0.113 pd=1.38 as=0.0567 ps=0.69 w=0.42 l=0.15
X18 a_1270_413# a_193_47# a_1108_47# VPB sky130_fd_pr__pfet_01v8_hvt ad=0.0567 pd=0.69 as=0.0588 ps=0.7 w=0.42 l=0.15
X19 a_193_47# a_27_47# VPWR VPB sky130_fd_pr__pfet_01v8_hvt ad=0.166 pd=1.8 as=0.0864 ps=0.91 w=0.64 l=0.15
X20 a_1283_21# RESET_B VPWR VPB sky130_fd_pr__pfet_01v8_hvt ad=0.0567 pd=0.69 as=0.0819 ps=0.81 w=0.42 l=0.15
X21 VPWR a_761_289# a_651_413# VPB sky130_fd_pr__pfet_01v8_hvt ad=0.0703 pd=0.755 as=0.116 ps=0.97 w=0.42 l=0.15
X22 Q a_1283_21# VGND VNB sky130_fd_pr__nfet_01v8 ad=0.169 pd=1.82 as=0.209 ps=2.02 w=0.65 l=0.15
X23 a_639_47# a_193_47# a_543_47# VNB sky130_fd_pr__nfet_01v8 ad=0.14 pd=1.1 as=0.0594 ps=0.69 w=0.36 l=0.15
X24 VGND a_1283_21# a_1217_47# VNB sky130_fd_pr__nfet_01v8 ad=0.125 pd=1.01 as=0.0669 ps=0.75 w=0.42 l=0.15
X25 a_651_413# RESET_B VPWR VPB sky130_fd_pr__pfet_01v8_hvt ad=0.109 pd=1.36 as=0.0703 ps=0.755 w=0.42 l=0.15
X26 VGND CLK a_27_47# VNB sky130_fd_pr__nfet_01v8 ad=0.0567 pd=0.69 as=0.109 ps=1.36 w=0.42 l=0.15
X27 a_761_289# a_543_47# VPWR VPB sky130_fd_pr__pfet_01v8_hvt ad=0.129 pd=1.18 as=0.218 ps=2.2 w=0.84 l=0.15
C0 RESET_B a_1283_21# 0.278f
C1 a_1217_47# a_761_289# 4.2e-19
C2 VGND Q 0.0616f
C3 Q a_1108_47# 9.8e-19
C4 a_761_289# a_543_47# 0.21f
C5 a_193_47# a_1283_21# 0.0424f
C6 VPWR a_1283_21# 0.209f
C7 a_805_47# a_543_47# 0.00171f
C8 a_639_47# a_543_47# 0.0138f
C9 VPB a_761_289# 0.0994f
C10 VPB CLK 0.0693f
C11 a_27_47# a_1283_21# 0.0436f
C12 a_1462_47# VGND 0.00221f
C13 D a_543_47# 7.35e-20
C14 VGND a_1283_21# 0.24f
C15 a_1283_21# a_1108_47# 0.234f
C16 a_1217_47# RESET_B 6.03e-19
C17 VPB D 0.138f
C18 RESET_B a_543_47# 0.153f
C19 a_805_47# a_761_289# 3.69e-19
C20 a_1217_47# a_193_47# 2.36e-20
C21 a_639_47# a_761_289# 3.16e-19
C22 Q a_1283_21# 0.0598f
C23 a_193_47# a_543_47# 0.23f
C24 VPB RESET_B 0.138f
C25 a_27_47# a_1217_47# 2.56e-19
C26 a_448_47# a_543_47# 0.0498f
C27 VPWR a_543_47# 0.1f
C28 VPB a_193_47# 0.171f
C29 a_27_47# a_543_47# 0.115f
C30 a_651_413# a_543_47# 0.0572f
C31 a_1217_47# VGND 9.68e-19
C32 a_1462_47# a_1283_21# 0.0074f
C33 a_1217_47# a_1108_47# 0.00742f
C34 RESET_B a_761_289# 0.166f
C35 VPB VPWR 0.216f
C36 CLK RESET_B 1.09e-19
C37 a_448_47# VPB 0.0141f
C38 VGND a_543_47# 0.123f
C39 a_543_47# a_1108_47# 7.99e-20
C40 a_27_47# VPB 0.262f
C41 a_805_47# RESET_B 0.00316f
C42 a_651_413# VPB 0.0135f
C43 CLK a_193_47# 7.94e-19
C44 a_193_47# a_761_289# 0.186f
C45 a_639_47# RESET_B 9.54e-19
C46 CLK VPWR 0.0174f
C47 D RESET_B 4.72e-19
C48 VPB VGND 0.00999f
C49 VPWR a_761_289# 0.105f
C50 VPB a_1108_47# 0.113f
C51 a_1270_413# a_761_289# 2.6e-19
C52 a_639_47# a_193_47# 2.28e-19
C53 a_27_47# CLK 0.234f
C54 a_27_47# a_761_289# 0.0701f
C55 a_651_413# a_761_289# 0.0977f
C56 D a_193_47# 0.218f
C57 a_639_47# a_448_47# 4.61e-19
C58 a_448_47# D 0.156f
C59 D VPWR 0.0812f
C60 VGND a_761_289# 0.0734f
C61 VPB Q 0.011f
C62 CLK VGND 0.0172f
C63 a_761_289# a_1108_47# 0.0512f
C64 a_27_47# a_639_47# 0.00188f
C65 a_27_47# D 0.133f
C66 a_805_47# VGND 0.00579f
C67 RESET_B a_193_47# 0.0269f
C68 a_639_47# VGND 0.00863f
C69 RESET_B VPWR 0.0652f
C70 D VGND 0.0516f
C71 a_448_47# RESET_B 2.45e-19
C72 a_1270_413# RESET_B 2.06e-19
C73 a_27_47# RESET_B 0.296f
C74 a_651_413# RESET_B 0.0122f
C75 VPWR a_193_47# 0.396f
C76 a_448_47# a_193_47# 0.0642f
C77 VPB a_1283_21# 0.137f
C78 a_1270_413# a_193_47# 1.46e-19
C79 RESET_B VGND 0.288f
C80 a_448_47# VPWR 0.0681f
C81 RESET_B a_1108_47# 0.237f
C82 a_27_47# a_193_47# 0.906f
C83 a_651_413# a_193_47# 0.0346f
C84 a_1270_413# VPWR 7.19e-19
C85 a_27_47# a_448_47# 0.0931f
C86 a_27_47# VPWR 0.152f
C87 a_651_413# VPWR 0.129f
C88 VGND a_193_47# 0.0631f
C89 a_193_47# a_1108_47# 0.125f
C90 a_27_47# a_651_413# 9.73e-19
C91 a_448_47# VGND 0.0661f
C92 VPWR VGND 0.0502f
C93 RESET_B Q 9.12e-19
C94 VPWR a_1108_47# 0.173f
C95 a_1270_413# a_1108_47# 0.00645f
C96 a_27_47# VGND 0.254f
C97 a_27_47# a_1108_47# 0.102f
C98 Q a_193_47# 1.81e-19
C99 VPWR Q 0.0997f
C100 VGND a_1108_47# 0.148f
C101 a_1462_47# RESET_B 0.00288f
C102 VPB a_543_47# 0.0958f
C103 a_27_47# Q 2.63e-20
C104 Q VNB 0.0899f
C105 VGND VNB 1.02f
C106 VPWR VNB 0.831f
C107 RESET_B VNB 0.264f
C108 D VNB 0.16f
C109 CLK VNB 0.195f
C110 VPB VNB 1.85f
C111 a_651_413# VNB 0.00469f
C112 a_448_47# VNB 0.0139f
C113 a_1108_47# VNB 0.139f
C114 a_1283_21# VNB 0.299f
C115 a_543_47# VNB 0.158f
C116 a_761_289# VNB 0.121f
C117 a_193_47# VNB 0.274f
C118 a_27_47# VNB 0.496f
.ends

.subckt sky130_fd_sc_hd__decap_8 VGND VNB VPB VPWR
X0 VPWR VGND VPWR VPB sky130_fd_pr__pfet_01v8_hvt ad=0.226 pd=2.26 as=0.452 ps=4.52 w=0.87 l=2.89
X1 VGND VPWR VGND VNB sky130_fd_pr__nfet_01v8 ad=0.143 pd=1.62 as=0.286 ps=3.24 w=0.55 l=2.89
C0 VPB VGND 0.22f
C1 VPB VPWR 0.105f
C2 VGND VPWR 1.27f
C3 VPWR VNB 1.14f
C4 VGND VNB 0.992f
C5 VPB VNB 0.782f
.ends

.subckt sky130_fd_sc_hd__clkbuf_4 A VGND VNB VPB VPWR X a_27_47#
X0 VPWR A a_27_47# VPB sky130_fd_pr__pfet_01v8_hvt ad=0.165 pd=1.33 as=0.265 ps=2.53 w=1 l=0.15
X1 VGND a_27_47# X VNB sky130_fd_pr__nfet_01v8 ad=0.122 pd=1.42 as=0.0588 ps=0.7 w=0.42 l=0.15
X2 VGND a_27_47# X VNB sky130_fd_pr__nfet_01v8 ad=0.0588 pd=0.7 as=0.0588 ps=0.7 w=0.42 l=0.15
X3 X a_27_47# VPWR VPB sky130_fd_pr__pfet_01v8_hvt ad=0.14 pd=1.28 as=0.14 ps=1.28 w=1 l=0.15
X4 X a_27_47# VGND VNB sky130_fd_pr__nfet_01v8 ad=0.0588 pd=0.7 as=0.0588 ps=0.7 w=0.42 l=0.15
X5 VGND A a_27_47# VNB sky130_fd_pr__nfet_01v8 ad=0.0703 pd=0.755 as=0.111 ps=1.37 w=0.42 l=0.15
X6 VPWR a_27_47# X VPB sky130_fd_pr__pfet_01v8_hvt ad=0.3 pd=2.6 as=0.14 ps=1.28 w=1 l=0.15
X7 X a_27_47# VGND VNB sky130_fd_pr__nfet_01v8 ad=0.0588 pd=0.7 as=0.0703 ps=0.755 w=0.42 l=0.15
X8 X a_27_47# VPWR VPB sky130_fd_pr__pfet_01v8_hvt ad=0.14 pd=1.28 as=0.165 ps=1.33 w=1 l=0.15
X9 VPWR a_27_47# X VPB sky130_fd_pr__pfet_01v8_hvt ad=0.14 pd=1.28 as=0.14 ps=1.28 w=1 l=0.15
C0 VPWR X 0.317f
C1 VGND a_27_47# 0.148f
C2 a_27_47# VPB 0.139f
C3 a_27_47# A 0.195f
C4 a_27_47# VPWR 0.219f
C5 VGND VPB 0.00583f
C6 a_27_47# X 0.328f
C7 VGND A 0.0431f
C8 VPB A 0.0321f
C9 VGND VPWR 0.057f
C10 VPB VPWR 0.0632f
C11 VGND X 0.216f
C12 VPB X 0.0122f
C13 A VPWR 0.022f
C14 A X 0.014f
C15 VGND VNB 0.358f
C16 X VNB 0.067f
C17 VPWR VNB 0.308f
C18 A VNB 0.148f
C19 VPB VNB 0.605f
C20 a_27_47# VNB 0.543f
.ends

.subckt sky130_fd_sc_hd__buf_2 A VGND VNB VPB VPWR X a_27_47#
X0 VPWR a_27_47# X VPB sky130_fd_pr__pfet_01v8_hvt ad=0.265 pd=2.53 as=0.135 ps=1.27 w=1 l=0.15
X1 X a_27_47# VPWR VPB sky130_fd_pr__pfet_01v8_hvt ad=0.135 pd=1.27 as=0.149 ps=1.33 w=1 l=0.15
X2 VPWR A a_27_47# VPB sky130_fd_pr__pfet_01v8_hvt ad=0.149 pd=1.33 as=0.166 ps=1.8 w=0.64 l=0.15
X3 X a_27_47# VGND VNB sky130_fd_pr__nfet_01v8 ad=0.0878 pd=0.92 as=0.097 ps=0.975 w=0.65 l=0.15
X4 VGND a_27_47# X VNB sky130_fd_pr__nfet_01v8 ad=0.172 pd=1.83 as=0.0878 ps=0.92 w=0.65 l=0.15
X5 VGND A a_27_47# VNB sky130_fd_pr__nfet_01v8 ad=0.097 pd=0.975 as=0.109 ps=1.36 w=0.42 l=0.15
C0 VPWR VGND 0.0518f
C1 VPB A 0.0697f
C2 VPB a_27_47# 0.075f
C3 VPB X 0.00443f
C4 A VGND 0.0199f
C5 VGND a_27_47# 0.127f
C6 VGND X 0.111f
C7 VPB VGND 0.00642f
C8 A VPWR 0.0221f
C9 VPWR a_27_47# 0.153f
C10 VPWR X 0.169f
C11 VPB VPWR 0.0528f
C12 A a_27_47# 0.158f
C13 A X 0.00306f
C14 X a_27_47# 0.149f
C15 VGND VNB 0.284f
C16 X VNB 0.0215f
C17 VPWR VNB 0.25f
C18 A VNB 0.187f
C19 VPB VNB 0.428f
C20 a_27_47# VNB 0.284f
.ends

.subckt sky130_fd_sc_hd__a21o_1 A1 A2 B1 VGND VNB VPB VPWR X a_384_47# a_81_21# a_299_297#
X0 a_81_21# B1 VGND VNB sky130_fd_pr__nfet_01v8 ad=0.0894 pd=0.925 as=0.257 ps=1.44 w=0.65 l=0.15
X1 a_299_297# B1 a_81_21# VPB sky130_fd_pr__pfet_01v8_hvt ad=0.138 pd=1.27 as=0.26 ps=2.52 w=1 l=0.15
X2 VPWR a_81_21# X VPB sky130_fd_pr__pfet_01v8_hvt ad=0.26 pd=2.52 as=0.26 ps=2.52 w=1 l=0.15
X3 VPWR A1 a_299_297# VPB sky130_fd_pr__pfet_01v8_hvt ad=0.14 pd=1.28 as=0.138 ps=1.27 w=1 l=0.15
X4 VGND a_81_21# X VNB sky130_fd_pr__nfet_01v8 ad=0.257 pd=1.44 as=0.169 ps=1.82 w=0.65 l=0.15
X5 VGND A2 a_384_47# VNB sky130_fd_pr__nfet_01v8 ad=0.172 pd=1.83 as=0.091 ps=0.93 w=0.65 l=0.15
X6 a_299_297# A2 VPWR VPB sky130_fd_pr__pfet_01v8_hvt ad=0.265 pd=2.53 as=0.14 ps=1.28 w=1 l=0.15
X7 a_384_47# A1 a_81_21# VNB sky130_fd_pr__nfet_01v8 ad=0.091 pd=0.93 as=0.0894 ps=0.925 w=0.65 l=0.15
C0 X VGND 0.0512f
C1 A1 a_81_21# 0.0568f
C2 VPWR a_81_21# 0.146f
C3 A1 A2 0.0921f
C4 VPWR A2 0.0201f
C5 A1 a_384_47# 0.00884f
C6 VPWR a_384_47# 4.08e-19
C7 a_81_21# B1 0.148f
C8 A1 VPB 0.0264f
C9 VPWR VPB 0.068f
C10 a_299_297# VGND 0.00772f
C11 B1 VPB 0.0387f
C12 VPWR A1 0.0209f
C13 a_81_21# X 0.112f
C14 A1 B1 0.0817f
C15 VPWR B1 0.0196f
C16 X VPB 0.0108f
C17 a_81_21# VGND 0.173f
C18 A2 VGND 0.0495f
C19 a_384_47# VGND 0.00366f
C20 a_81_21# a_299_297# 0.0821f
C21 VPWR X 0.0847f
C22 VPB VGND 0.00713f
C23 a_299_297# A2 0.0468f
C24 a_299_297# a_384_47# 1.48e-19
C25 X B1 3.04e-20
C26 a_299_297# VPB 0.0111f
C27 A1 VGND 0.0786f
C28 VPWR VGND 0.0579f
C29 A1 a_299_297# 0.0585f
C30 VPWR a_299_297# 0.202f
C31 B1 VGND 0.0181f
C32 a_81_21# A2 7.47e-19
C33 a_81_21# a_384_47# 0.00138f
C34 a_299_297# B1 0.00863f
C35 a_81_21# VPB 0.0593f
C36 VPB A2 0.0373f
C37 VGND VNB 0.364f
C38 VPWR VNB 0.286f
C39 X VNB 0.0945f
C40 A2 VNB 0.144f
C41 A1 VNB 0.0996f
C42 B1 VNB 0.109f
C43 VPB VNB 0.605f
C44 a_299_297# VNB 0.0348f
C45 a_81_21# VNB 0.147f
.ends

.subckt sky130_fd_sc_hd__decap_4 VGND VNB VPB VPWR
X0 VPWR VGND VPWR VPB sky130_fd_pr__pfet_01v8_hvt ad=0.226 pd=2.26 as=0.452 ps=4.52 w=0.87 l=1.05
X1 VGND VPWR VGND VNB sky130_fd_pr__nfet_01v8 ad=0.143 pd=1.62 as=0.286 ps=3.24 w=0.55 l=1.05
C0 VPB VGND 0.116f
C1 VPWR VGND 0.546f
C2 VPB VPWR 0.0787f
C3 VPWR VNB 0.619f
C4 VGND VNB 0.554f
C5 VPB VNB 0.428f
.ends

.subckt sky130_fd_sc_hd__and2_1 A B VGND VNB VPB VPWR X a_145_75# a_59_75#
X0 VPWR B a_59_75# VPB sky130_fd_pr__pfet_01v8_hvt ad=0.167 pd=1.39 as=0.0567 ps=0.69 w=0.42 l=0.15
X1 X a_59_75# VPWR VPB sky130_fd_pr__pfet_01v8_hvt ad=0.475 pd=2.95 as=0.167 ps=1.39 w=1 l=0.15
X2 VGND B a_145_75# VNB sky130_fd_pr__nfet_01v8 ad=0.112 pd=1.04 as=0.0567 ps=0.69 w=0.42 l=0.15
X3 a_59_75# A VPWR VPB sky130_fd_pr__pfet_01v8_hvt ad=0.0567 pd=0.69 as=0.118 ps=1.4 w=0.42 l=0.15
X4 X a_59_75# VGND VNB sky130_fd_pr__nfet_01v8 ad=0.182 pd=1.86 as=0.112 ps=1.04 w=0.65 l=0.15
X5 a_145_75# A a_59_75# VNB sky130_fd_pr__nfet_01v8 ad=0.0567 pd=0.69 as=0.118 ps=1.4 w=0.42 l=0.15
C0 VPB A 0.0806f
C1 VPWR VGND 0.0461f
C2 VGND a_145_75# 0.00468f
C3 VPWR a_59_75# 0.15f
C4 VGND B 0.0115f
C5 a_145_75# a_59_75# 0.00658f
C6 VGND X 0.0993f
C7 VGND VPB 0.008f
C8 a_59_75# B 0.143f
C9 X a_59_75# 0.109f
C10 VPWR a_145_75# 6.31e-19
C11 VPB a_59_75# 0.0563f
C12 VGND A 0.0147f
C13 VPWR B 0.0117f
C14 VPWR X 0.111f
C15 VPWR VPB 0.0729f
C16 a_59_75# A 0.0809f
C17 X a_145_75# 5.76e-19
C18 X B 0.00276f
C19 VPWR A 0.0362f
C20 VPB B 0.0629f
C21 VPB X 0.0127f
C22 VGND a_59_75# 0.116f
C23 B A 0.0971f
C24 X A 1.68e-19
C25 VGND VNB 0.311f
C26 X VNB 0.1f
C27 B VNB 0.113f
C28 A VNB 0.174f
C29 VPWR VNB 0.273f
C30 VPB VNB 0.516f
C31 a_59_75# VNB 0.177f
.ends

.subckt sky130_fd_sc_hd__a22o_1 A1 A2 B1 B2 VGND VNB VPB VPWR X a_27_297# a_109_47#
+ a_109_297# a_373_47#
X0 VPWR A2 a_109_297# VPB sky130_fd_pr__pfet_01v8_hvt ad=0.155 pd=1.31 as=0.16 ps=1.32 w=1 l=0.15
X1 a_27_297# B1 a_109_47# VNB sky130_fd_pr__nfet_01v8 ad=0.169 pd=1.82 as=0.0747 ps=0.88 w=0.65 l=0.15
X2 VGND A2 a_373_47# VNB sky130_fd_pr__nfet_01v8 ad=0.101 pd=0.96 as=0.114 ps=1 w=0.65 l=0.15
X3 X a_27_297# VPWR VPB sky130_fd_pr__pfet_01v8_hvt ad=0.26 pd=2.52 as=0.155 ps=1.31 w=1 l=0.15
X4 a_27_297# B1 a_109_297# VPB sky130_fd_pr__pfet_01v8_hvt ad=0.253 pd=2.52 as=0.135 ps=1.27 w=1 l=0.15
X5 a_109_297# A1 VPWR VPB sky130_fd_pr__pfet_01v8_hvt ad=0.16 pd=1.32 as=0.253 ps=2.52 w=1 l=0.15
X6 a_373_47# A1 a_27_297# VNB sky130_fd_pr__nfet_01v8 ad=0.114 pd=1 as=0.169 ps=1.82 w=0.65 l=0.15
X7 X a_27_297# VGND VNB sky130_fd_pr__nfet_01v8 ad=0.169 pd=1.82 as=0.101 ps=0.96 w=0.65 l=0.15
X8 a_109_297# B2 a_27_297# VPB sky130_fd_pr__pfet_01v8_hvt ad=0.135 pd=1.27 as=0.26 ps=2.52 w=1 l=0.15
X9 a_109_47# B2 VGND VNB sky130_fd_pr__nfet_01v8 ad=0.0747 pd=0.88 as=0.169 ps=1.82 w=0.65 l=0.15
C0 VGND a_109_297# 0.00426f
C1 B2 a_109_297# 0.0015f
C2 A2 VPWR 0.0178f
C3 a_27_297# VPWR 0.13f
C4 A2 VPB 0.0284f
C5 A2 X 0.0011f
C6 a_27_297# VPB 0.0591f
C7 a_27_297# X 0.108f
C8 A2 B1 1.81e-19
C9 a_27_297# B1 0.0838f
C10 A1 VPWR 0.0168f
C11 A1 VPB 0.0387f
C12 A1 X 2.98e-19
C13 A1 B1 0.0657f
C14 a_109_47# VPWR 0.00104f
C15 a_27_297# A2 0.161f
C16 a_373_47# VPWR 7.36e-19
C17 a_373_47# X 1.97e-19
C18 B1 a_109_47# 0.00145f
C19 VGND VPWR 0.0641f
C20 B2 VPWR 0.0126f
C21 VGND VPB 0.00746f
C22 VGND X 0.0543f
C23 B2 VPB 0.0299f
C24 B2 X 3.26e-20
C25 A2 A1 0.0738f
C26 a_27_297# A1 0.0839f
C27 VGND B1 0.0267f
C28 B2 B1 0.0739f
C29 a_27_297# a_109_47# 0.00393f
C30 A2 a_373_47# 6.81e-19
C31 VPWR a_109_297# 0.187f
C32 a_27_297# a_373_47# 0.0134f
C33 VPB a_109_297# 0.00882f
C34 X a_109_297# 0.00169f
C35 VGND A2 0.0162f
C36 A2 B2 8.94e-20
C37 VGND a_27_297# 0.257f
C38 a_27_297# B2 0.0567f
C39 B1 a_109_297# 0.0106f
C40 a_373_47# A1 0.00122f
C41 VGND A1 0.0137f
C42 A2 a_109_297# 0.00625f
C43 a_27_297# a_109_297# 0.171f
C44 VGND a_109_47# 0.00792f
C45 B2 a_109_47# 4.58e-19
C46 VGND a_373_47# 0.00344f
C47 A1 a_109_297# 0.0105f
C48 VGND B2 0.0538f
C49 VPB VPWR 0.0714f
C50 X VPWR 0.0914f
C51 X VPB 0.011f
C52 B1 VPWR 0.0139f
C53 B1 VPB 0.0317f
C54 B1 X 8.38e-20
C55 VGND VNB 0.421f
C56 X VNB 0.0917f
C57 VPWR VNB 0.328f
C58 A2 VNB 0.0927f
C59 A1 VNB 0.112f
C60 B1 VNB 0.112f
C61 B2 VNB 0.126f
C62 VPB VNB 0.693f
C63 a_109_297# VNB 0.00274f
C64 a_27_297# VNB 0.19f
.ends

.subckt sky130_fd_sc_hd__o22a_1 A1 A2 B1 B2 VGND VNB VPB VPWR X a_78_199# a_493_297#
+ a_215_47# a_292_297#
X0 a_78_199# B1 a_215_47# VNB sky130_fd_pr__nfet_01v8 ad=0.0878 pd=0.92 as=0.169 ps=1.82 w=0.65 l=0.15
X1 VPWR A1 a_493_297# VPB sky130_fd_pr__pfet_01v8_hvt ad=0.26 pd=2.52 as=0.105 ps=1.21 w=1 l=0.15
X2 a_493_297# A2 a_78_199# VPB sky130_fd_pr__pfet_01v8_hvt ad=0.105 pd=1.21 as=0.235 ps=1.47 w=1 l=0.15
X3 VPWR a_78_199# X VPB sky130_fd_pr__pfet_01v8_hvt ad=0.373 pd=1.75 as=0.28 ps=2.56 w=1 l=0.15
X4 VGND A2 a_215_47# VNB sky130_fd_pr__nfet_01v8 ad=0.0878 pd=0.92 as=0.114 ps=1 w=0.65 l=0.15
X5 a_78_199# B2 a_292_297# VPB sky130_fd_pr__pfet_01v8_hvt ad=0.235 pd=1.47 as=0.117 ps=1.24 w=1 l=0.15
X6 a_215_47# A1 VGND VNB sky130_fd_pr__nfet_01v8 ad=0.169 pd=1.82 as=0.0878 ps=0.92 w=0.65 l=0.15
X7 a_215_47# B2 a_78_199# VNB sky130_fd_pr__nfet_01v8 ad=0.114 pd=1 as=0.0878 ps=0.92 w=0.65 l=0.15
X8 a_292_297# B1 VPWR VPB sky130_fd_pr__pfet_01v8_hvt ad=0.117 pd=1.24 as=0.373 ps=1.75 w=1 l=0.15
X9 VGND a_78_199# X VNB sky130_fd_pr__nfet_01v8 ad=0.169 pd=1.82 as=0.169 ps=1.82 w=0.65 l=0.15
C0 VPB VGND 0.00596f
C1 a_78_199# VGND 0.0684f
C2 VPWR A1 0.057f
C3 VPWR B2 0.0104f
C4 a_215_47# X 0.00228f
C5 VPB VPWR 0.0744f
C6 VPWR a_78_199# 0.211f
C7 a_215_47# B1 0.00758f
C8 A2 B1 3.91e-19
C9 A2 a_292_297# 4.41e-20
C10 VPWR VGND 0.0668f
C11 X B2 1.65e-19
C12 A2 a_215_47# 0.0439f
C13 VPB X 0.0107f
C14 X a_78_199# 0.105f
C15 B2 B1 0.0815f
C16 VPB B1 0.0388f
C17 B2 a_292_297# 4.98e-20
C18 a_78_199# B1 0.148f
C19 a_215_47# a_493_297# 3.25e-19
C20 A2 a_493_297# 0.0105f
C21 a_78_199# a_292_297# 0.013f
C22 a_215_47# A1 0.0498f
C23 X VGND 0.0472f
C24 A2 A1 0.0879f
C25 a_215_47# B2 0.0207f
C26 A2 B2 0.0676f
C27 B1 VGND 0.0119f
C28 VPB a_215_47# 9.85e-19
C29 a_215_47# a_78_199# 0.0907f
C30 VPB A2 0.0341f
C31 X VPWR 0.0911f
C32 A2 a_78_199# 0.0707f
C33 a_493_297# A1 9.88e-20
C34 a_292_297# VGND 0.00136f
C35 VPWR B1 0.0227f
C36 a_78_199# a_493_297# 3.15e-19
C37 VPWR a_292_297# 0.00854f
C38 a_215_47# VGND 0.258f
C39 A2 VGND 0.0153f
C40 VPB A1 0.0319f
C41 a_78_199# A1 4.58e-19
C42 VPB B2 0.0281f
C43 a_78_199# B2 0.0816f
C44 a_215_47# VPWR 0.00435f
C45 A2 VPWR 0.12f
C46 a_493_297# VGND 3.15e-19
C47 VPB a_78_199# 0.0517f
C48 X B1 6.11e-19
C49 X a_292_297# 4.46e-19
C50 VPWR a_493_297# 0.00283f
C51 A1 VGND 0.0146f
C52 B2 VGND 0.0103f
C53 VGND VNB 0.403f
C54 VPWR VNB 0.359f
C55 X VNB 0.0884f
C56 A1 VNB 0.132f
C57 A2 VNB 0.0971f
C58 B2 VNB 0.0913f
C59 B1 VNB 0.11f
C60 VPB VNB 0.693f
C61 a_215_47# VNB 0.0357f
C62 a_78_199# VNB 0.154f
.ends

.subckt sky130_fd_sc_hd__decap_6 VGND VNB VPB VPWR
X0 VPWR VGND VPWR VPB sky130_fd_pr__pfet_01v8_hvt ad=0.226 pd=2.26 as=0.452 ps=4.52 w=0.87 l=1.97
X1 VGND VPWR VGND VNB sky130_fd_pr__nfet_01v8 ad=0.143 pd=1.62 as=0.286 ps=3.24 w=0.55 l=1.97
C0 VPB VPWR 0.0858f
C1 VPWR VGND 0.903f
C2 VPB VGND 0.161f
C3 VPWR VNB 0.867f
C4 VGND VNB 0.761f
C5 VPB VNB 0.605f
.ends

.subckt sky130_fd_sc_hd__nand3b_2 A_N B C VGND VNB VPB VPWR Y a_408_47# a_218_47#
+ a_27_47#
X0 a_408_47# B a_218_47# VNB sky130_fd_pr__nfet_01v8 ad=0.0878 pd=0.92 as=0.0878 ps=0.92 w=0.65 l=0.15
X1 a_408_47# a_27_47# Y VNB sky130_fd_pr__nfet_01v8 ad=0.169 pd=1.82 as=0.0878 ps=0.92 w=0.65 l=0.15
X2 Y a_27_47# a_408_47# VNB sky130_fd_pr__nfet_01v8 ad=0.0878 pd=0.92 as=0.0878 ps=0.92 w=0.65 l=0.15
X3 VPWR A_N a_27_47# VPB sky130_fd_pr__pfet_01v8_hvt ad=0.176 pd=1.39 as=0.109 ps=1.36 w=0.42 l=0.15
X4 VGND C a_218_47# VNB sky130_fd_pr__nfet_01v8 ad=0.169 pd=1.82 as=0.0878 ps=0.92 w=0.65 l=0.15
X5 VPWR B Y VPB sky130_fd_pr__pfet_01v8_hvt ad=0.26 pd=2.52 as=0.135 ps=1.27 w=1 l=0.15
X6 a_218_47# C VGND VNB sky130_fd_pr__nfet_01v8 ad=0.0878 pd=0.92 as=0.12 ps=1.04 w=0.65 l=0.15
X7 Y B VPWR VPB sky130_fd_pr__pfet_01v8_hvt ad=0.135 pd=1.27 as=0.135 ps=1.27 w=1 l=0.15
X8 VPWR C Y VPB sky130_fd_pr__pfet_01v8_hvt ad=0.135 pd=1.27 as=0.135 ps=1.27 w=1 l=0.15
X9 VPWR a_27_47# Y VPB sky130_fd_pr__pfet_01v8_hvt ad=0.26 pd=2.52 as=0.135 ps=1.27 w=1 l=0.15
X10 a_218_47# B a_408_47# VNB sky130_fd_pr__nfet_01v8 ad=0.0878 pd=0.92 as=0.169 ps=1.82 w=0.65 l=0.15
X11 Y C VPWR VPB sky130_fd_pr__pfet_01v8_hvt ad=0.135 pd=1.27 as=0.176 ps=1.39 w=1 l=0.15
X12 Y a_27_47# VPWR VPB sky130_fd_pr__pfet_01v8_hvt ad=0.135 pd=1.27 as=0.26 ps=2.52 w=1 l=0.15
X13 VGND A_N a_27_47# VNB sky130_fd_pr__nfet_01v8 ad=0.12 pd=1.04 as=0.109 ps=1.36 w=0.42 l=0.15
C0 C A_N 0.0603f
C1 VPB a_218_47# 1.44e-19
C2 C VPB 0.0536f
C3 VPB B 0.082f
C4 VGND a_27_47# 0.119f
C5 a_408_47# a_27_47# 0.0212f
C6 VGND VPWR 0.0834f
C7 a_408_47# VPWR 0.00288f
C8 Y a_27_47# 0.35f
C9 VPB A_N 0.0913f
C10 Y VPWR 0.457f
C11 a_408_47# VGND 0.243f
C12 a_218_47# a_27_47# 0.00788f
C13 C a_27_47# 0.0792f
C14 a_218_47# VPWR 0.00305f
C15 B a_27_47# 0.176f
C16 VGND Y 0.0176f
C17 a_408_47# Y 0.0985f
C18 C VPWR 0.032f
C19 B VPWR 0.0305f
C20 VGND a_218_47# 0.173f
C21 a_408_47# a_218_47# 0.097f
C22 a_27_47# A_N 0.0854f
C23 C VGND 0.0348f
C24 VGND B 0.0223f
C25 C a_408_47# 7.76e-20
C26 a_408_47# B 0.0409f
C27 VPWR A_N 0.023f
C28 VPB a_27_47# 0.098f
C29 C Y 0.0232f
C30 B Y 0.031f
C31 VPB VPWR 0.0961f
C32 VGND A_N 0.0459f
C33 a_408_47# A_N 5.25e-20
C34 C a_218_47# 0.0806f
C35 B a_218_47# 0.0867f
C36 VGND VPB 0.00877f
C37 Y A_N 0.00302f
C38 C B 0.0583f
C39 VPB Y 0.0201f
C40 a_218_47# A_N 0.00187f
C41 VPWR a_27_47# 0.174f
C42 VGND VNB 0.483f
C43 Y VNB 0.0685f
C44 VPWR VNB 0.41f
C45 B VNB 0.227f
C46 C VNB 0.176f
C47 A_N VNB 0.171f
C48 VPB VNB 0.871f
C49 a_408_47# VNB 0.0232f
C50 a_218_47# VNB 0.0113f
C51 a_27_47# VNB 0.296f
.ends

.subckt sky130_fd_sc_hd__dfrtp_2 CLK D RESET_B VGND VNB VPB VPWR Q a_1462_47# a_543_47#
+ a_651_413# a_193_47# a_805_47# a_448_47# a_639_47# a_1283_21# a_761_289# a_1108_47#
+ a_1217_47# a_1270_413# a_27_47#
X0 a_1217_47# a_27_47# a_1108_47# VNB sky130_fd_pr__nfet_01v8 ad=0.0669 pd=0.75 as=0.0711 ps=0.755 w=0.36 l=0.15
X1 a_805_47# a_761_289# a_639_47# VNB sky130_fd_pr__nfet_01v8 ad=0.0441 pd=0.63 as=0.14 ps=1.1 w=0.42 l=0.15
X2 VGND a_1283_21# Q VNB sky130_fd_pr__nfet_01v8 ad=0.169 pd=1.82 as=0.0878 ps=0.92 w=0.65 l=0.15
X3 a_1108_47# a_193_47# a_761_289# VNB sky130_fd_pr__nfet_01v8 ad=0.0711 pd=0.755 as=0.0999 ps=0.985 w=0.36 l=0.15
X4 a_1283_21# a_1108_47# a_1462_47# VNB sky130_fd_pr__nfet_01v8 ad=0.109 pd=1.36 as=0.064 ps=0.725 w=0.42 l=0.15
X5 a_651_413# a_27_47# a_543_47# VPB sky130_fd_pr__pfet_01v8_hvt ad=0.116 pd=0.97 as=0.0724 ps=0.765 w=0.42 l=0.15
X6 VPWR a_1283_21# Q VPB sky130_fd_pr__pfet_01v8_hvt ad=0.26 pd=2.52 as=0.135 ps=1.27 w=1 l=0.15
X7 VGND RESET_B a_805_47# VNB sky130_fd_pr__nfet_01v8 ad=0.135 pd=1.15 as=0.0441 ps=0.63 w=0.42 l=0.15
X8 Q a_1283_21# VPWR VPB sky130_fd_pr__pfet_01v8_hvt ad=0.135 pd=1.27 as=0.301 ps=2.66 w=1 l=0.15
X9 VPWR CLK a_27_47# VPB sky130_fd_pr__pfet_01v8_hvt ad=0.0864 pd=0.91 as=0.166 ps=1.8 w=0.64 l=0.15
X10 a_448_47# D VPWR VPB sky130_fd_pr__pfet_01v8_hvt ad=0.0651 pd=0.73 as=0.109 ps=1.36 w=0.42 l=0.15
X11 a_761_289# a_543_47# VGND VNB sky130_fd_pr__nfet_01v8 ad=0.0999 pd=0.985 as=0.135 ps=1.15 w=0.64 l=0.15
X12 a_193_47# a_27_47# VGND VNB sky130_fd_pr__nfet_01v8 ad=0.109 pd=1.36 as=0.0567 ps=0.69 w=0.42 l=0.15
X13 a_1108_47# a_27_47# a_761_289# VPB sky130_fd_pr__pfet_01v8_hvt ad=0.0588 pd=0.7 as=0.129 ps=1.18 w=0.42 l=0.15
X14 a_543_47# a_27_47# a_448_47# VNB sky130_fd_pr__nfet_01v8 ad=0.0594 pd=0.69 as=0.066 ps=0.745 w=0.36 l=0.15
X15 a_1462_47# RESET_B VGND VNB sky130_fd_pr__nfet_01v8 ad=0.064 pd=0.725 as=0.125 ps=1.01 w=0.42 l=0.15
X16 a_543_47# a_193_47# a_448_47# VPB sky130_fd_pr__pfet_01v8_hvt ad=0.0724 pd=0.765 as=0.0651 ps=0.73 w=0.42 l=0.15
X17 a_448_47# D VGND VNB sky130_fd_pr__nfet_01v8 ad=0.066 pd=0.745 as=0.221 ps=1.89 w=0.42 l=0.15
X18 VPWR a_1283_21# a_1270_413# VPB sky130_fd_pr__pfet_01v8_hvt ad=0.0819 pd=0.81 as=0.0567 ps=0.69 w=0.42 l=0.15
X19 VPWR a_1108_47# a_1283_21# VPB sky130_fd_pr__pfet_01v8_hvt ad=0.113 pd=1.38 as=0.0567 ps=0.69 w=0.42 l=0.15
X20 a_1270_413# a_193_47# a_1108_47# VPB sky130_fd_pr__pfet_01v8_hvt ad=0.0567 pd=0.69 as=0.0588 ps=0.7 w=0.42 l=0.15
X21 a_193_47# a_27_47# VPWR VPB sky130_fd_pr__pfet_01v8_hvt ad=0.166 pd=1.8 as=0.0864 ps=0.91 w=0.64 l=0.15
X22 a_1283_21# RESET_B VPWR VPB sky130_fd_pr__pfet_01v8_hvt ad=0.0567 pd=0.69 as=0.0819 ps=0.81 w=0.42 l=0.15
X23 VPWR a_761_289# a_651_413# VPB sky130_fd_pr__pfet_01v8_hvt ad=0.0703 pd=0.755 as=0.116 ps=0.97 w=0.42 l=0.15
X24 Q a_1283_21# VGND VNB sky130_fd_pr__nfet_01v8 ad=0.0878 pd=0.92 as=0.209 ps=2.02 w=0.65 l=0.15
X25 a_639_47# a_193_47# a_543_47# VNB sky130_fd_pr__nfet_01v8 ad=0.14 pd=1.1 as=0.0594 ps=0.69 w=0.36 l=0.15
X26 VGND a_1283_21# a_1217_47# VNB sky130_fd_pr__nfet_01v8 ad=0.125 pd=1.01 as=0.0669 ps=0.75 w=0.42 l=0.15
X27 a_651_413# RESET_B VPWR VPB sky130_fd_pr__pfet_01v8_hvt ad=0.109 pd=1.36 as=0.0703 ps=0.755 w=0.42 l=0.15
X28 VGND CLK a_27_47# VNB sky130_fd_pr__nfet_01v8 ad=0.0567 pd=0.69 as=0.109 ps=1.36 w=0.42 l=0.15