* SPICE3 file created from dac_flat.ext - technology: sky130B

.subckt dac_flat ctl5 ctl7 ctl1 ctl0 ctl4 ctl6 ctl3 ctl2 vin dum sample vdd out vss
X0 out.t80 sky130_fd_sc_hd__inv_2_1.Y.t0 sky130_fd_pr__cap_mim_m3_1 l=2 w=2
X1 out.t81 sky130_fd_sc_hd__inv_2_2.Y sky130_fd_pr__cap_mim_m3_1 l=2 w=2
X2 out.t82 sky130_fd_sc_hd__inv_2_2.Y sky130_fd_pr__cap_mim_m3_1 l=2 w=2
X3 out.t78 sw_top_0.sky130_fd_sc_hd__inv_4_1.Y vin.t79 vdd.t138 sky130_fd_pr__pfet_01v8 ad=0.145 pd=1.29 as=0.145 ps=1.29 w=1 l=0.3
X4 vin.t9 sw_top_3.sky130_fd_sc_hd__inv_4_0.Y out.t7 vss.t38 sky130_fd_pr__nfet_01v8 ad=0.145 pd=1.29 as=0.145 ps=1.29 w=1 l=0.3
X5 vss.t121 sw_top_1.sky130_fd_sc_hd__inv_4_1.Y sw_top_1.sky130_fd_sc_hd__inv_4_0.Y vss.t120 sky130_fd_pr__nfet_01v8 ad=0.169 pd=1.82 as=0.0878 ps=0.92 w=0.65 l=0.15
X6 out.t83 sky130_fd_sc_hd__inv_2_8.Y sky130_fd_pr__cap_mim_m3_1 l=2 w=2
X7 vss.t57 sample.t0 sw_top_0.sky130_fd_sc_hd__inv_4_1.Y vss.t56 sky130_fd_pr__nfet_01v8 ad=0.0878 pd=0.92 as=0.0878 ps=0.92 w=0.65 l=0.15
X8 vin.t78 sw_top_0.sky130_fd_sc_hd__inv_4_1.Y out.t71 vdd.t137 sky130_fd_pr__pfet_01v8 ad=0.145 pd=1.29 as=0.145 ps=1.29 w=1 l=0.3
X9 vdd.t15 sample.t1 sw_top_3.sky130_fd_sc_hd__inv_4_1.Y vdd.t14 sky130_fd_pr__pfet_01v8_hvt ad=0.26 pd=2.52 as=0.135 ps=1.27 w=1 l=0.15
X10 out.t84 carray_0.unitcap_336.cn sky130_fd_pr__cap_mim_m3_1 l=2 w=2
X11 out.t85 carray_0.unitcap_151.cn sky130_fd_pr__cap_mim_m3_1 l=2 w=2
X12 out.t86 sky130_fd_sc_hd__inv_2_1.Y sky130_fd_pr__cap_mim_m3_1 l=2 w=2
X13 sw_top_3.sky130_fd_sc_hd__inv_4_1.Y sample.t2 vss.t25 vss.t24 sky130_fd_pr__nfet_01v8 ad=0.0878 pd=0.92 as=0.169 ps=1.82 w=0.65 l=0.15
X14 out.t87 sky130_fd_sc_hd__inv_2_2.Y sky130_fd_pr__cap_mim_m3_1 l=2 w=2
X15 out.t63 sw_top_3.sky130_fd_sc_hd__inv_4_1.Y vin.t69 vdd.t120 sky130_fd_pr__pfet_01v8 ad=0.145 pd=1.29 as=0.145 ps=1.29 w=1 l=0.3
X16 out.t19 sw_top_1.sky130_fd_sc_hd__inv_4_0.Y vin.t19 vss.t53 sky130_fd_pr__nfet_01v8 ad=0.145 pd=1.29 as=0.145 ps=1.29 w=1 l=0.3
X17 out.t88 sky130_fd_sc_hd__inv_2_2.Y sky130_fd_pr__cap_mim_m3_1 l=2 w=2
X18 out.t89 sky130_fd_sc_hd__inv_2_2.Y sky130_fd_pr__cap_mim_m3_1 l=2 w=2
X19 out.t90 sky130_fd_sc_hd__inv_2_8.Y sky130_fd_pr__cap_mim_m3_1 l=2 w=2
X20 out.t91 sky130_fd_sc_hd__inv_2_2.Y sky130_fd_pr__cap_mim_m3_1 l=2 w=2
X21 out.t92 sky130_fd_sc_hd__inv_2_2.Y sky130_fd_pr__cap_mim_m3_1 l=2 w=2
X22 sky130_fd_sc_hd__inv_2_2.Y.t4 ctl7.t0 vdd sky130_fd_sc_hd__inv_2_7.VPB sky130_fd_pr__pfet_01v8_hvt ad=0.135 pd=1.27 as=0.26 ps=2.52 w=1 l=0.15
X23 out.t93 sky130_fd_sc_hd__inv_2_1.Y sky130_fd_pr__cap_mim_m3_1 l=2 w=2
X24 out.t94 sky130_fd_sc_hd__inv_2_3.Y sky130_fd_pr__cap_mim_m3_1 l=2 w=2
X25 out.t95 sky130_fd_sc_hd__inv_2_2.Y sky130_fd_pr__cap_mim_m3_1 l=2 w=2
X26 out.t96 sky130_fd_sc_hd__inv_2_1.Y sky130_fd_pr__cap_mim_m3_1 l=2 w=2
X27 vin.t49 sw_top_1.sky130_fd_sc_hd__inv_4_1.Y out.t42 vdd.t79 sky130_fd_pr__pfet_01v8 ad=0.145 pd=1.29 as=0.145 ps=1.29 w=1 l=0.3
X28 vin.t39 sw_top_0.sky130_fd_sc_hd__inv_4_0.Y out.t30 vss.t107 sky130_fd_pr__nfet_01v8 ad=0.145 pd=1.29 as=0.145 ps=1.29 w=1 l=0.3
X29 out.t97 sky130_fd_sc_hd__inv_2_3.Y sky130_fd_pr__cap_mim_m3_1 l=2 w=2
X30 out.t98 sky130_fd_sc_hd__inv_2_1.Y sky130_fd_pr__cap_mim_m3_1 l=2 w=2
X31 out.t99 sky130_fd_sc_hd__inv_2_1.Y sky130_fd_pr__cap_mim_m3_1 l=2 w=2
X32 out.t100 sky130_fd_sc_hd__inv_2_1.Y sky130_fd_pr__cap_mim_m3_1 l=2 w=2
X33 sw_top_0.sky130_fd_sc_hd__inv_4_1.Y sample.t3 vdd.t3 vdd.t2 sky130_fd_pr__pfet_01v8_hvt ad=0.135 pd=1.27 as=0.135 ps=1.27 w=1 l=0.15
X34 out.t101 sky130_fd_sc_hd__inv_2_2.Y sky130_fd_pr__cap_mim_m3_1 l=2 w=2
X35 out.t102 sky130_fd_sc_hd__inv_2_0.Y sky130_fd_pr__cap_mim_m3_1 l=2 w=2
X36 out.t103 sky130_fd_sc_hd__inv_2_1.Y sky130_fd_pr__cap_mim_m3_1 l=2 w=2
X37 out.t104 sky130_fd_sc_hd__inv_2_0.Y sky130_fd_pr__cap_mim_m3_1 l=2 w=2
X38 out.t105 carray_0.unitcap_47.cn sky130_fd_pr__cap_mim_m3_1 l=2 w=2
X39 vin.t59 sw_top_2.sky130_fd_sc_hd__inv_4_1.Y out.t53 vdd.t97 sky130_fd_pr__pfet_01v8 ad=0.145 pd=1.29 as=0.145 ps=1.29 w=1 l=0.3
X40 vdd.t140 sample.t4 sw_top_3.sky130_fd_sc_hd__inv_4_1.Y vdd.t139 sky130_fd_pr__pfet_01v8_hvt ad=0.135 pd=1.27 as=0.135 ps=1.27 w=1 l=0.15
X41 out.t106 sky130_fd_sc_hd__inv_2_2.Y sky130_fd_pr__cap_mim_m3_1 l=2 w=2
X42 vin.t8 sw_top_3.sky130_fd_sc_hd__inv_4_0.Y out.t6 vss.t37 sky130_fd_pr__nfet_01v8 ad=0.29 pd=2.58 as=0.145 ps=1.29 w=1 l=0.3
X43 out.t107 sky130_fd_sc_hd__inv_2_2.Y sky130_fd_pr__cap_mim_m3_1 l=2 w=2
X44 sw_top_2.sky130_fd_sc_hd__inv_4_0.Y sw_top_2.sky130_fd_sc_hd__inv_4_1.Y vss.t129 vss.t128 sky130_fd_pr__nfet_01v8 ad=0.0878 pd=0.92 as=0.169 ps=1.82 w=0.65 l=0.15
X45 out.t108 sky130_fd_sc_hd__inv_2_8.Y sky130_fd_pr__cap_mim_m3_1 l=2 w=2
X46 out.t109 carray_0.unitcap_223.cn sky130_fd_pr__cap_mim_m3_1 l=2 w=2
X47 out.t110 carray_0.unitcap_127.cn sky130_fd_pr__cap_mim_m3_1 l=2 w=2
X48 out.t111 carray_0.unitcap_16.cn sky130_fd_pr__cap_mim_m3_1 l=2 w=2
X49 out.t112 sky130_fd_sc_hd__inv_2_2.Y.t3 sky130_fd_pr__cap_mim_m3_1 l=2 w=2
X50 out.t113 sky130_fd_sc_hd__inv_2_2.Y sky130_fd_pr__cap_mim_m3_1 l=2 w=2
X51 out.t68 sw_top_3.sky130_fd_sc_hd__inv_4_1.Y vin.t68 vdd.t119 sky130_fd_pr__pfet_01v8 ad=0.145 pd=1.29 as=0.145 ps=1.29 w=1 l=0.3
X52 sw_top_0.sky130_fd_sc_hd__inv_4_0.Y sw_top_0.sky130_fd_sc_hd__inv_4_1.Y vss.t156 vss.t155 sky130_fd_pr__nfet_01v8 ad=0.0878 pd=0.92 as=0.0878 ps=0.92 w=0.65 l=0.15
X53 out.t11 sw_top_1.sky130_fd_sc_hd__inv_4_0.Y vin.t18 vss.t52 sky130_fd_pr__nfet_01v8 ad=0.145 pd=1.29 as=0.145 ps=1.29 w=1 l=0.3
X54 vdd.t118 sw_top_3.sky130_fd_sc_hd__inv_4_1.Y sw_top_3.sky130_fd_sc_hd__inv_4_0.Y vdd.t117 sky130_fd_pr__pfet_01v8_hvt ad=0.26 pd=2.52 as=0.135 ps=1.27 w=1 l=0.15
X55 sw_top_1.sky130_fd_sc_hd__inv_4_1.Y sample.t5 vdd.t142 vdd.t141 sky130_fd_pr__pfet_01v8_hvt ad=0.135 pd=1.27 as=0.135 ps=1.27 w=1 l=0.15
X56 out.t114 sky130_fd_sc_hd__inv_2_1.Y sky130_fd_pr__cap_mim_m3_1 l=2 w=2
X57 out.t115 sky130_fd_sc_hd__inv_2_1.Y sky130_fd_pr__cap_mim_m3_1 l=2 w=2
X58 out.t116 sky130_fd_sc_hd__inv_2_2.Y sky130_fd_pr__cap_mim_m3_1 l=2 w=2
X59 out.t117 sky130_fd_sc_hd__inv_2_2.Y sky130_fd_pr__cap_mim_m3_1 l=2 w=2
X60 vdd ctl2.t0 sky130_fd_sc_hd__inv_2_5.Y.t2 sky130_fd_sc_hd__inv_2_7.VPB sky130_fd_pr__pfet_01v8_hvt ad=0.26 pd=2.52 as=0.135 ps=1.27 w=1 l=0.15
X61 vdd ctl5.t0 sky130_fd_sc_hd__inv_2_0.Y.t3 sky130_fd_sc_hd__inv_2_7.VPB sky130_fd_pr__pfet_01v8_hvt ad=0.26 pd=2.52 as=0.135 ps=1.27 w=1 l=0.15
X62 vdd.t99 sample.t6 sw_top_2.sky130_fd_sc_hd__inv_4_1.Y vdd.t98 sky130_fd_pr__pfet_01v8_hvt ad=0.135 pd=1.27 as=0.135 ps=1.27 w=1 l=0.15
X63 out.t118 carray_0.unitcap_256.cn sky130_fd_pr__cap_mim_m3_1 l=2 w=2
X64 vdd ctl1.t0 sky130_fd_sc_hd__inv_2_4.Y sky130_fd_sc_hd__inv_2_7.VPB sky130_fd_pr__pfet_01v8_hvt ad=0.26 pd=2.52 as=0.135 ps=1.27 w=1 l=0.15
X65 out.t119 sky130_fd_sc_hd__inv_2_2.Y sky130_fd_pr__cap_mim_m3_1 l=2 w=2
X66 out.t120 sky130_fd_sc_hd__inv_2_0.Y sky130_fd_pr__cap_mim_m3_1 l=2 w=2
X67 out.t121 sky130_fd_sc_hd__inv_2_2.Y sky130_fd_pr__cap_mim_m3_1 l=2 w=2
X68 out.t122 sky130_fd_sc_hd__inv_2_2.Y sky130_fd_pr__cap_mim_m3_1 l=2 w=2
X69 out.t123 sky130_fd_sc_hd__inv_2_2.Y sky130_fd_pr__cap_mim_m3_1 l=2 w=2
X70 vin.t7 sw_top_3.sky130_fd_sc_hd__inv_4_0.Y out.t5 vss.t36 sky130_fd_pr__nfet_01v8 ad=0.145 pd=1.29 as=0.145 ps=1.29 w=1 l=0.3
X71 out.t23 sw_top_2.sky130_fd_sc_hd__inv_4_0.Y vin.t29 vss.t85 sky130_fd_pr__nfet_01v8 ad=0.145 pd=1.29 as=0.29 ps=2.58 w=1 l=0.3
X72 vdd.t55 vss.t182 vdd.t54 vdd.t53 sky130_fd_pr__pfet_01v8_hvt ad=0.226 pd=2.26 as=0 ps=0 w=0.87 l=2.89
X73 out.t124 carray_0.unitcap_0.cn sky130_fd_pr__cap_mim_m3_1 l=2 w=2
X74 out.t125 sky130_fd_sc_hd__inv_2_8.Y sky130_fd_pr__cap_mim_m3_1 l=2 w=2
X75 out.t126 sky130_fd_sc_hd__inv_2_2.Y sky130_fd_pr__cap_mim_m3_1 l=2 w=2
X76 out.t127 carray_0.unitcap_328.cn sky130_fd_pr__cap_mim_m3_1 l=2 w=2
X77 out.t128 sky130_fd_sc_hd__inv_2_1.Y sky130_fd_pr__cap_mim_m3_1 l=2 w=2
X78 out.t129 carray_0.unitcap_71.cn sky130_fd_pr__cap_mim_m3_1 l=2 w=2
X79 vdd.t96 sw_top_2.sky130_fd_sc_hd__inv_4_1.Y sw_top_2.sky130_fd_sc_hd__inv_4_0.Y vdd.t95 sky130_fd_pr__pfet_01v8_hvt ad=0.135 pd=1.27 as=0.135 ps=1.27 w=1 l=0.15
X80 out.t130 sky130_fd_sc_hd__inv_2_3.Y.t0 sky130_fd_pr__cap_mim_m3_1 l=2 w=2
X81 out.t131 sky130_fd_sc_hd__inv_2_1.Y sky130_fd_pr__cap_mim_m3_1 l=2 w=2
X82 out.t132 sky130_fd_sc_hd__inv_2_2.Y sky130_fd_pr__cap_mim_m3_1 l=2 w=2
X83 sky130_fd_sc_hd__inv_2_5.Y.t1 ctl2.t1 vdd sky130_fd_sc_hd__inv_2_7.VPB sky130_fd_pr__pfet_01v8_hvt ad=0.135 pd=1.27 as=0.26 ps=2.52 w=1 l=0.15
X84 sky130_fd_sc_hd__inv_2_2.Y.t5 ctl7.t1 vss vss.t41 sky130_fd_pr__nfet_01v8 ad=0.0878 pd=0.92 as=0.169 ps=1.82 w=0.65 l=0.15
X85 out.t133 carray_0.unitcap_167.cn sky130_fd_pr__cap_mim_m3_1 l=2 w=2
X86 out.t134 sky130_fd_sc_hd__inv_2_1.Y sky130_fd_pr__cap_mim_m3_1 l=2 w=2
X87 out.t135 carray_0.unitcap_72.cn sky130_fd_pr__cap_mim_m3_1 l=2 w=2
X88 vin.t77 sw_top_0.sky130_fd_sc_hd__inv_4_1.Y out.t73 vdd.t136 sky130_fd_pr__pfet_01v8 ad=0.145 pd=1.29 as=0.145 ps=1.29 w=1 l=0.3
X89 out.t136 sky130_fd_sc_hd__inv_2_2.Y sky130_fd_pr__cap_mim_m3_1 l=2 w=2
X90 out.t137 carray_0.unitcap_96.cn sky130_fd_pr__cap_mim_m3_1 l=2 w=2
X91 sw_top_3.sky130_fd_sc_hd__inv_4_0.Y sw_top_3.sky130_fd_sc_hd__inv_4_1.Y vdd.t116 vdd.t115 sky130_fd_pr__pfet_01v8_hvt ad=0.135 pd=1.27 as=0.135 ps=1.27 w=1 l=0.15
X92 out.t138 sky130_fd_sc_hd__inv_2_0.Y sky130_fd_pr__cap_mim_m3_1 l=2 w=2
X93 sw_top_0.sky130_fd_sc_hd__inv_4_0.Y sw_top_0.sky130_fd_sc_hd__inv_4_1.Y vss.t154 vss.t153 sky130_fd_pr__nfet_01v8 ad=0.0878 pd=0.92 as=0.169 ps=1.82 w=0.65 l=0.15
X94 out.t139 sky130_fd_sc_hd__inv_2_2.Y sky130_fd_pr__cap_mim_m3_1 l=2 w=2
X95 vdd.t43 vss.t183 vdd.t42 vdd.t41 sky130_fd_pr__pfet_01v8_hvt ad=0.226 pd=2.26 as=0 ps=0 w=0.87 l=2.89
X96 out.t140 sky130_fd_sc_hd__inv_2_2.Y sky130_fd_pr__cap_mim_m3_1 l=2 w=2
X97 out.t62 sw_top_3.sky130_fd_sc_hd__inv_4_1.Y vin.t67 vdd.t114 sky130_fd_pr__pfet_01v8 ad=0.145 pd=1.29 as=0.145 ps=1.29 w=1 l=0.3
X98 vdd dum.t0 sky130_fd_sc_hd__inv_2_7.Y sky130_fd_sc_hd__inv_2_7.VPB sky130_fd_pr__pfet_01v8_hvt ad=0.26 pd=2.52 as=0.135 ps=1.27 w=1 l=0.15
X99 out.t141 sky130_fd_sc_hd__inv_2_8.Y sky130_fd_pr__cap_mim_m3_1 l=2 w=2
X100 out.t142 sky130_fd_sc_hd__inv_2_2.Y sky130_fd_pr__cap_mim_m3_1 l=2 w=2
X101 out.t143 carray_0.unitcap_152.cn sky130_fd_pr__cap_mim_m3_1 l=2 w=2
X102 out.t144 sky130_fd_sc_hd__inv_2_1.Y sky130_fd_pr__cap_mim_m3_1 l=2 w=2
X103 out.t145 sky130_fd_sc_hd__inv_2_6.Y sky130_fd_pr__cap_mim_m3_1 l=2 w=2
X104 out.t146 sky130_fd_sc_hd__inv_2_2.Y sky130_fd_pr__cap_mim_m3_1 l=2 w=2
X105 out.t147 sky130_fd_sc_hd__inv_2_2.Y sky130_fd_pr__cap_mim_m3_1 l=2 w=2
X106 out.t148 sky130_fd_sc_hd__inv_2_2.Y sky130_fd_pr__cap_mim_m3_1 l=2 w=2
X107 out.t149 sky130_fd_sc_hd__inv_2_0.Y sky130_fd_pr__cap_mim_m3_1 l=2 w=2
X108 out.t40 sw_top_1.sky130_fd_sc_hd__inv_4_1.Y vin.t48 vdd.t78 sky130_fd_pr__pfet_01v8 ad=0.145 pd=1.29 as=0.29 ps=2.58 w=1 l=0.3
X109 out.t32 sw_top_0.sky130_fd_sc_hd__inv_4_0.Y vin.t38 vss.t106 sky130_fd_pr__nfet_01v8 ad=0.145 pd=1.29 as=0.145 ps=1.29 w=1 l=0.3
X110 vss dum.t1 sky130_fd_sc_hd__inv_2_7.Y vss.t176 sky130_fd_pr__nfet_01v8 ad=0.169 pd=1.82 as=0.0878 ps=0.92 w=0.65 l=0.15
X111 out.t150 sky130_fd_sc_hd__inv_2_1.Y sky130_fd_pr__cap_mim_m3_1 l=2 w=2
X112 out.t151 sky130_fd_sc_hd__inv_2_2.Y sky130_fd_pr__cap_mim_m3_1 l=2 w=2
X113 out.t152 sky130_fd_sc_hd__inv_2_1.Y sky130_fd_pr__cap_mim_m3_1 l=2 w=2
X114 out.t153 sky130_fd_sc_hd__inv_2_2.Y sky130_fd_pr__cap_mim_m3_1 l=2 w=2
X115 sky130_fd_sc_hd__inv_2_6.Y ctl0.t0 vdd sky130_fd_sc_hd__inv_2_7.VPB sky130_fd_pr__pfet_01v8_hvt ad=0.135 pd=1.27 as=0.26 ps=2.52 w=1 l=0.15
X116 out.t154 carray_0.unitcap_192.cn sky130_fd_pr__cap_mim_m3_1 l=2 w=2
X117 vss.t131 sample.t7 sw_top_1.sky130_fd_sc_hd__inv_4_1.Y vss.t130 sky130_fd_pr__nfet_01v8 ad=0.169 pd=1.82 as=0.0878 ps=0.92 w=0.65 l=0.15
X118 out.t155 carray_0.unitcap_10.cn sky130_fd_pr__cap_mim_m3_1 l=2 w=2
X119 out.t156 sky130_fd_sc_hd__inv_2_0.Y sky130_fd_pr__cap_mim_m3_1 l=2 w=2
X120 out.t157 sky130_fd_sc_hd__inv_2_2.Y sky130_fd_pr__cap_mim_m3_1 l=2 w=2
X121 out.t158 carray_0.unitcap_39.cn sky130_fd_pr__cap_mim_m3_1 l=2 w=2
X122 vss ctl2.t2 sky130_fd_sc_hd__inv_2_5.Y.t4 vss.t161 sky130_fd_pr__nfet_01v8 ad=0.169 pd=1.82 as=0.0878 ps=0.92 w=0.65 l=0.15
X123 out.t58 sw_top_2.sky130_fd_sc_hd__inv_4_1.Y vin.t58 vdd.t94 sky130_fd_pr__pfet_01v8 ad=0.145 pd=1.29 as=0.145 ps=1.29 w=1 l=0.3
X124 out.t159 carray_0.unitcap_224.cn sky130_fd_pr__cap_mim_m3_1 l=2 w=2
X125 out.t160 sky130_fd_sc_hd__inv_2_0.Y sky130_fd_pr__cap_mim_m3_1 l=2 w=2
X126 out.t4 sw_top_3.sky130_fd_sc_hd__inv_4_0.Y vin.t6 vss.t35 sky130_fd_pr__nfet_01v8 ad=0.145 pd=1.29 as=0.145 ps=1.29 w=1 l=0.3
X127 out.t161 sky130_fd_sc_hd__inv_2_2.Y sky130_fd_pr__cap_mim_m3_1 l=2 w=2
X128 sky130_fd_sc_hd__inv_2_6.Y ctl0.t1 vss vss.t67 sky130_fd_pr__nfet_01v8 ad=0.0878 pd=0.92 as=0.169 ps=1.82 w=0.65 l=0.15
X129 vss ctl5.t1 sky130_fd_sc_hd__inv_2_0.Y.t4 vss.t179 sky130_fd_pr__nfet_01v8 ad=0.169 pd=1.82 as=0.0878 ps=0.92 w=0.65 l=0.15
X130 vdd.t135 sw_top_0.sky130_fd_sc_hd__inv_4_1.Y sw_top_0.sky130_fd_sc_hd__inv_4_0.Y vdd.t134 sky130_fd_pr__pfet_01v8_hvt ad=0.135 pd=1.27 as=0.135 ps=1.27 w=1 l=0.15
X131 sw_top_2.sky130_fd_sc_hd__inv_4_1.Y sample.t8 vss.t63 vss.t62 sky130_fd_pr__nfet_01v8 ad=0.0878 pd=0.92 as=0.0878 ps=0.92 w=0.65 l=0.15
X132 out.t162 sky130_fd_sc_hd__inv_2_2.Y sky130_fd_pr__cap_mim_m3_1 l=2 w=2
X133 vss ctl1.t1 sky130_fd_sc_hd__inv_2_4.Y vss.t64 sky130_fd_pr__nfet_01v8 ad=0.169 pd=1.82 as=0.0878 ps=0.92 w=0.65 l=0.15
X134 vss.t23 vdd.t146 vss.t22 vss.t21 sky130_fd_pr__nfet_01v8 ad=0.143 pd=1.62 as=0 ps=0 w=0.55 l=2.89
X135 vdd.t46 vss.t184 vdd.t45 vdd.t44 sky130_fd_pr__pfet_01v8_hvt ad=0.226 pd=2.26 as=0 ps=0 w=0.87 l=0.59
X136 out.t163 carray_0.unitcap_247.cn sky130_fd_pr__cap_mim_m3_1 l=2 w=2
X137 out.t164 carray_0.unitcap_119.cn sky130_fd_pr__cap_mim_m3_1 l=2 w=2
X138 vin.t76 sw_top_0.sky130_fd_sc_hd__inv_4_1.Y out.t76 vdd.t133 sky130_fd_pr__pfet_01v8 ad=0.29 pd=2.58 as=0.145 ps=1.29 w=1 l=0.3
X139 out.t165 sky130_fd_sc_hd__inv_2_2.Y sky130_fd_pr__cap_mim_m3_1 l=2 w=2
X140 out.t166 sky130_fd_sc_hd__inv_2_3.Y.t1 sky130_fd_pr__cap_mim_m3_1 l=2 w=2
X141 out.t167 sky130_fd_sc_hd__inv_2_1.Y sky130_fd_pr__cap_mim_m3_1 l=2 w=2
X142 out.t168 sky130_fd_sc_hd__inv_2_2.Y sky130_fd_pr__cap_mim_m3_1 l=2 w=2
X143 sw_top_3.sky130_fd_sc_hd__inv_4_0.Y sw_top_3.sky130_fd_sc_hd__inv_4_1.Y vdd.t113 vdd.t112 sky130_fd_pr__pfet_01v8_hvt ad=0.135 pd=1.27 as=0.26 ps=2.52 w=1 l=0.15
X144 vin.t17 sw_top_1.sky130_fd_sc_hd__inv_4_0.Y out.t10 vss.t51 sky130_fd_pr__nfet_01v8 ad=0.145 pd=1.29 as=0.145 ps=1.29 w=1 l=0.3
X145 out.t169 carray_0.unitcap_321.cn sky130_fd_pr__cap_mim_m3_1 l=2 w=2
X146 out.t170 sky130_fd_sc_hd__inv_2_1.Y sky130_fd_pr__cap_mim_m3_1 l=2 w=2
X147 out.t171 sky130_fd_sc_hd__inv_2_2.Y sky130_fd_pr__cap_mim_m3_1 l=2 w=2
X148 out.t172 sky130_fd_sc_hd__inv_2_1.Y sky130_fd_pr__cap_mim_m3_1 l=2 w=2
X149 sky130_fd_sc_hd__inv_2_5.Y.t3 ctl2.t3 vss vss.t164 sky130_fd_pr__nfet_01v8 ad=0.0878 pd=0.92 as=0.169 ps=1.82 w=0.65 l=0.15
X150 out.t173 carray_0.unitcap_184.cn sky130_fd_pr__cap_mim_m3_1 l=2 w=2
X151 out.t24 sw_top_2.sky130_fd_sc_hd__inv_4_0.Y vin.t28 vss.t84 sky130_fd_pr__nfet_01v8 ad=0.145 pd=1.29 as=0.145 ps=1.29 w=1 l=0.3
X152 out.t174 sky130_fd_sc_hd__inv_2_1.Y sky130_fd_pr__cap_mim_m3_1 l=2 w=2
X153 vdd.t77 sw_top_1.sky130_fd_sc_hd__inv_4_1.Y sw_top_1.sky130_fd_sc_hd__inv_4_0.Y vdd.t76 sky130_fd_pr__pfet_01v8_hvt ad=0.135 pd=1.27 as=0.135 ps=1.27 w=1 l=0.15
X154 out.t175 sky130_fd_sc_hd__inv_2_0.Y sky130_fd_pr__cap_mim_m3_1 l=2 w=2
X155 out.t176 sky130_fd_sc_hd__inv_2_0.Y sky130_fd_pr__cap_mim_m3_1 l=2 w=2
X156 out.t177 sky130_fd_sc_hd__inv_2_2.Y sky130_fd_pr__cap_mim_m3_1 l=2 w=2
X157 out.t178 sky130_fd_sc_hd__inv_2_2.Y sky130_fd_pr__cap_mim_m3_1 l=2 w=2
X158 out.t179 sky130_fd_sc_hd__inv_2_2.Y sky130_fd_pr__cap_mim_m3_1 l=2 w=2
X159 out.t180 sky130_fd_sc_hd__inv_2_2.Y sky130_fd_pr__cap_mim_m3_1 l=2 w=2
X160 vss.t20 vdd.t147 vss.t19 vss.t18 sky130_fd_pr__nfet_01v8 ad=0.143 pd=1.62 as=0 ps=0 w=0.55 l=2.89
X161 vin.t27 sw_top_2.sky130_fd_sc_hd__inv_4_0.Y out.t29 vss.t83 sky130_fd_pr__nfet_01v8 ad=0.145 pd=1.29 as=0.145 ps=1.29 w=1 l=0.3
X162 vdd.t21 sample.t9 sw_top_2.sky130_fd_sc_hd__inv_4_1.Y vdd.t20 sky130_fd_pr__pfet_01v8_hvt ad=0.26 pd=2.52 as=0.135 ps=1.27 w=1 l=0.15
X163 vss.t59 sample.t10 sw_top_1.sky130_fd_sc_hd__inv_4_1.Y vss.t58 sky130_fd_pr__nfet_01v8 ad=0.0878 pd=0.92 as=0.0878 ps=0.92 w=0.65 l=0.15
X164 out.t181 carray_0.unitcap_232.cn sky130_fd_pr__cap_mim_m3_1 l=2 w=2
X165 out.t182 sky130_fd_sc_hd__inv_2_8.Y sky130_fd_pr__cap_mim_m3_1 l=2 w=2
X166 out.t183 sky130_fd_sc_hd__inv_2_1.Y sky130_fd_pr__cap_mim_m3_1 l=2 w=2
X167 out.t184 sky130_fd_sc_hd__inv_2_4.Y sky130_fd_pr__cap_mim_m3_1 l=2 w=2
X168 out.t185 sky130_fd_sc_hd__inv_2_1.Y sky130_fd_pr__cap_mim_m3_1 l=2 w=2
X169 out.t186 sky130_fd_sc_hd__inv_2_2.Y sky130_fd_pr__cap_mim_m3_1 l=2 w=2
X170 out.t187 sky130_fd_sc_hd__inv_2_2.Y sky130_fd_pr__cap_mim_m3_1 l=2 w=2
X171 out.t3 sw_top_3.sky130_fd_sc_hd__inv_4_0.Y vin.t5 vss.t34 sky130_fd_pr__nfet_01v8 ad=0.145 pd=1.29 as=0.145 ps=1.29 w=1 l=0.3
X172 vin.t75 sw_top_0.sky130_fd_sc_hd__inv_4_1.Y out.t75 vdd.t132 sky130_fd_pr__pfet_01v8 ad=0.145 pd=1.29 as=0.145 ps=1.29 w=1 l=0.3
X173 sw_top_2.sky130_fd_sc_hd__inv_4_1.Y sample.t11 vss.t61 vss.t60 sky130_fd_pr__nfet_01v8 ad=0.0878 pd=0.92 as=0.169 ps=1.82 w=0.65 l=0.15
X174 out.t188 sky130_fd_sc_hd__inv_2_2.Y sky130_fd_pr__cap_mim_m3_1 l=2 w=2
X175 out.t189 sky130_fd_sc_hd__inv_2_1.Y sky130_fd_pr__cap_mim_m3_1 l=2 w=2
X176 out.t59 sw_top_2.sky130_fd_sc_hd__inv_4_1.Y vin.t57 vdd.t93 sky130_fd_pr__pfet_01v8 ad=0.145 pd=1.29 as=0.145 ps=1.29 w=1 l=0.3
X177 out.t190 sky130_fd_sc_hd__inv_2_1.Y sky130_fd_pr__cap_mim_m3_1 l=2 w=2
X178 out.t191 sky130_fd_sc_hd__inv_2_2.Y sky130_fd_pr__cap_mim_m3_1 l=2 w=2
X179 out.t192 carray_0.unitcap_13.cn sky130_fd_pr__cap_mim_m3_1 l=2 w=2
X180 out.t193 sky130_fd_sc_hd__inv_2_2.Y sky130_fd_pr__cap_mim_m3_1 l=2 w=2
X181 out.t194 sky130_fd_sc_hd__inv_2_0.Y sky130_fd_pr__cap_mim_m3_1 l=2 w=2
X182 out.t195 sky130_fd_sc_hd__inv_2_2.Y sky130_fd_pr__cap_mim_m3_1 l=2 w=2
X183 sw_top_2.sky130_fd_sc_hd__inv_4_0.Y sw_top_2.sky130_fd_sc_hd__inv_4_1.Y vss.t127 vss.t126 sky130_fd_pr__nfet_01v8 ad=0.0878 pd=0.92 as=0.0878 ps=0.92 w=0.65 l=0.15
X184 vin.t66 sw_top_3.sky130_fd_sc_hd__inv_4_1.Y out.t65 vdd.t111 sky130_fd_pr__pfet_01v8 ad=0.145 pd=1.29 as=0.145 ps=1.29 w=1 l=0.3
X185 out.t196 sky130_fd_sc_hd__inv_2_2.Y sky130_fd_pr__cap_mim_m3_1 l=2 w=2
X186 vss.t17 vdd.t148 vss.t16 vss.t15 sky130_fd_pr__nfet_01v8 ad=0.143 pd=1.62 as=0 ps=0 w=0.55 l=0.59
X187 out.t197 sky130_fd_sc_hd__inv_2_2.Y sky130_fd_pr__cap_mim_m3_1 l=2 w=2
X188 out.t198 sky130_fd_sc_hd__inv_2_0.Y sky130_fd_pr__cap_mim_m3_1 l=2 w=2
X189 out.t199 carray_0.unitcap_322.cn sky130_fd_pr__cap_mim_m3_1 l=2 w=2
X190 out.t200 sky130_fd_sc_hd__inv_2_1.Y sky130_fd_pr__cap_mim_m3_1 l=2 w=2
X191 out.t201 sky130_fd_sc_hd__inv_2_2.Y sky130_fd_pr__cap_mim_m3_1 l=2 w=2
X192 out.t202 sky130_fd_sc_hd__inv_2_3.Y sky130_fd_pr__cap_mim_m3_1 l=2 w=2
X193 out.t203 sky130_fd_sc_hd__inv_2_1.Y sky130_fd_pr__cap_mim_m3_1 l=2 w=2
X194 vss.t148 sw_top_3.sky130_fd_sc_hd__inv_4_1.Y sw_top_3.sky130_fd_sc_hd__inv_4_0.Y vss.t147 sky130_fd_pr__nfet_01v8 ad=0.0878 pd=0.92 as=0.0878 ps=0.92 w=0.65 l=0.15
X195 out.t204 sky130_fd_sc_hd__inv_2_2.Y sky130_fd_pr__cap_mim_m3_1 l=2 w=2
X196 out.t205 sky130_fd_sc_hd__inv_2_1.Y sky130_fd_pr__cap_mim_m3_1 l=2 w=2
X197 out.t206 sky130_fd_sc_hd__inv_2_2.Y sky130_fd_pr__cap_mim_m3_1 l=2 w=2
X198 out.t207 sky130_fd_sc_hd__inv_2_1.Y sky130_fd_pr__cap_mim_m3_1 l=2 w=2
X199 vin.t47 sw_top_1.sky130_fd_sc_hd__inv_4_1.Y out.t47 vdd.t75 sky130_fd_pr__pfet_01v8 ad=0.145 pd=1.29 as=0.145 ps=1.29 w=1 l=0.3
X200 vdd ctl3.t0 sky130_fd_sc_hd__inv_2_3.Y.t2 sky130_fd_sc_hd__inv_2_7.VPB sky130_fd_pr__pfet_01v8_hvt ad=0.26 pd=2.52 as=0.135 ps=1.27 w=1 l=0.15
X201 vin.t37 sw_top_0.sky130_fd_sc_hd__inv_4_0.Y out.t31 vss.t105 sky130_fd_pr__nfet_01v8 ad=0.145 pd=1.29 as=0.145 ps=1.29 w=1 l=0.3
X202 vdd.t11 sample.t12 sw_top_0.sky130_fd_sc_hd__inv_4_1.Y vdd.t10 sky130_fd_pr__pfet_01v8_hvt ad=0.26 pd=2.52 as=0.135 ps=1.27 w=1 l=0.15
X203 out.t208 sky130_fd_sc_hd__inv_2_0.Y sky130_fd_pr__cap_mim_m3_1 l=2 w=2
X204 out.t209 sky130_fd_sc_hd__inv_2_8.Y sky130_fd_pr__cap_mim_m3_1 l=2 w=2
X205 out.t210 sky130_fd_sc_hd__inv_2_2.Y sky130_fd_pr__cap_mim_m3_1 l=2 w=2
X206 out.t211 sky130_fd_sc_hd__inv_2_0.Y sky130_fd_pr__cap_mim_m3_1 l=2 w=2
X207 out.t212 sky130_fd_sc_hd__inv_2_2.Y sky130_fd_pr__cap_mim_m3_1 l=2 w=2
X208 out.t213 sky130_fd_sc_hd__inv_2_2.Y sky130_fd_pr__cap_mim_m3_1 l=2 w=2
X209 out.t214 sky130_fd_sc_hd__inv_2_2.Y sky130_fd_pr__cap_mim_m3_1 l=2 w=2
X210 out.t50 sw_top_2.sky130_fd_sc_hd__inv_4_1.Y vin.t56 vdd.t92 sky130_fd_pr__pfet_01v8 ad=0.145 pd=1.29 as=0.145 ps=1.29 w=1 l=0.3
X211 out.t215 sky130_fd_sc_hd__inv_2_2.Y sky130_fd_pr__cap_mim_m3_1 l=2 w=2
X212 sw_top_1.sky130_fd_sc_hd__inv_4_0.Y sw_top_1.sky130_fd_sc_hd__inv_4_1.Y vss.t119 vss.t118 sky130_fd_pr__nfet_01v8 ad=0.0878 pd=0.92 as=0.0878 ps=0.92 w=0.65 l=0.15
X213 out.t9 sw_top_3.sky130_fd_sc_hd__inv_4_0.Y vin.t4 vss.t33 sky130_fd_pr__nfet_01v8 ad=0.145 pd=1.29 as=0.145 ps=1.29 w=1 l=0.3
X214 vdd.t91 sw_top_2.sky130_fd_sc_hd__inv_4_1.Y sw_top_2.sky130_fd_sc_hd__inv_4_0.Y vdd.t90 sky130_fd_pr__pfet_01v8_hvt ad=0.26 pd=2.52 as=0.135 ps=1.27 w=1 l=0.15
X215 sw_top_3.sky130_fd_sc_hd__inv_4_1.Y sample.t13 vdd.t13 vdd.t12 sky130_fd_pr__pfet_01v8_hvt ad=0.135 pd=1.27 as=0.135 ps=1.27 w=1 l=0.15
X216 out.t216 carray_0.unitcap_239.cn sky130_fd_pr__cap_mim_m3_1 l=2 w=2
X217 out.t79 sw_top_0.sky130_fd_sc_hd__inv_4_1.Y vin.t74 vdd.t131 sky130_fd_pr__pfet_01v8 ad=0.145 pd=1.29 as=0.145 ps=1.29 w=1 l=0.3
X218 vdd.t49 vss.t185 vdd.t48 vdd.t47 sky130_fd_pr__pfet_01v8_hvt ad=0.226 pd=2.26 as=0 ps=0 w=0.87 l=2.89
X219 out.t217 sky130_fd_sc_hd__inv_2_0.Y sky130_fd_pr__cap_mim_m3_1 l=2 w=2
X220 out.t218 sky130_fd_sc_hd__inv_2_5.Y sky130_fd_pr__cap_mim_m3_1 l=2 w=2
X221 out.t219 sky130_fd_sc_hd__inv_2_1.Y sky130_fd_pr__cap_mim_m3_1 l=2 w=2
X222 sw_top_0.sky130_fd_sc_hd__inv_4_1.Y sample.t14 vss.t91 vss.t90 sky130_fd_pr__nfet_01v8 ad=0.0878 pd=0.92 as=0.169 ps=1.82 w=0.65 l=0.15
X223 out.t220 sky130_fd_sc_hd__inv_2_2.Y.t2 sky130_fd_pr__cap_mim_m3_1 l=2 w=2
X224 out.t221 carray_0.unitcap_95.cn sky130_fd_pr__cap_mim_m3_1 l=2 w=2
X225 out.t15 sw_top_1.sky130_fd_sc_hd__inv_4_0.Y vin.t16 vss.t50 sky130_fd_pr__nfet_01v8 ad=0.145 pd=1.29 as=0.29 ps=2.58 w=1 l=0.3
X226 vdd ctl4.t0 sky130_fd_sc_hd__inv_2_8.Y sky130_fd_sc_hd__inv_2_7.VPB sky130_fd_pr__pfet_01v8_hvt ad=0.26 pd=2.52 as=0.135 ps=1.27 w=1 l=0.15
X227 out.t222 sky130_fd_sc_hd__inv_2_2.Y sky130_fd_pr__cap_mim_m3_1 l=2 w=2
X228 out.t223 sky130_fd_sc_hd__inv_2_1.Y sky130_fd_pr__cap_mim_m3_1 l=2 w=2
X229 vin.t15 sw_top_1.sky130_fd_sc_hd__inv_4_0.Y out.t14 vss.t49 sky130_fd_pr__nfet_01v8 ad=0.145 pd=1.29 as=0.145 ps=1.29 w=1 l=0.3
X230 out.t224 sky130_fd_sc_hd__inv_2_2.Y sky130_fd_pr__cap_mim_m3_1 l=2 w=2
X231 out.t225 carray_0.unitcap_183.cn sky130_fd_pr__cap_mim_m3_1 l=2 w=2
X232 vss.t152 sw_top_0.sky130_fd_sc_hd__inv_4_1.Y sw_top_0.sky130_fd_sc_hd__inv_4_0.Y vss.t151 sky130_fd_pr__nfet_01v8 ad=0.169 pd=1.82 as=0.0878 ps=0.92 w=0.65 l=0.15
X233 out.t226 sky130_fd_sc_hd__inv_2_1.Y sky130_fd_pr__cap_mim_m3_1 l=2 w=2
X234 sw_top_1.sky130_fd_sc_hd__inv_4_1.Y sample.t15 vdd.t34 vdd.t33 sky130_fd_pr__pfet_01v8_hvt ad=0.135 pd=1.27 as=0.26 ps=2.52 w=1 l=0.15
X235 out.t227 sky130_fd_sc_hd__inv_2_7.Y sky130_fd_pr__cap_mim_m3_1 l=2 w=2
X236 out.t228 carray_0.unitcap_14.cn sky130_fd_pr__cap_mim_m3_1 l=2 w=2
X237 out.t229 sky130_fd_sc_hd__inv_2_0.Y sky130_fd_pr__cap_mim_m3_1 l=2 w=2
X238 out.t230 sky130_fd_sc_hd__inv_2_2.Y sky130_fd_pr__cap_mim_m3_1 l=2 w=2
X239 out.t231 sky130_fd_sc_hd__inv_2_2.Y sky130_fd_pr__cap_mim_m3_1 l=2 w=2
X240 out.t232 sky130_fd_sc_hd__inv_2_2.Y sky130_fd_pr__cap_mim_m3_1 l=2 w=2
X241 out.t233 sky130_fd_sc_hd__inv_2_0.Y sky130_fd_pr__cap_mim_m3_1 l=2 w=2
X242 out.t21 sw_top_2.sky130_fd_sc_hd__inv_4_0.Y vin.t26 vss.t82 sky130_fd_pr__nfet_01v8 ad=0.145 pd=1.29 as=0.145 ps=1.29 w=1 l=0.3
X243 sky130_fd_sc_hd__inv_2_0.Y.t1 ctl5.t2 vdd sky130_fd_sc_hd__inv_2_7.VPB sky130_fd_pr__pfet_01v8_hvt ad=0.135 pd=1.27 as=0.26 ps=2.52 w=1 l=0.15
X244 out.t234 carray_0.unitcap_56.cn sky130_fd_pr__cap_mim_m3_1 l=2 w=2
X245 out.t235 sky130_fd_sc_hd__inv_2_2.Y sky130_fd_pr__cap_mim_m3_1 l=2 w=2
X246 vdd.t74 sw_top_1.sky130_fd_sc_hd__inv_4_1.Y sw_top_1.sky130_fd_sc_hd__inv_4_0.Y vdd.t73 sky130_fd_pr__pfet_01v8_hvt ad=0.26 pd=2.52 as=0.135 ps=1.27 w=1 l=0.15
X247 sky130_fd_sc_hd__inv_2_4.Y ctl1.t2 vdd sky130_fd_sc_hd__inv_2_7.VPB sky130_fd_pr__pfet_01v8_hvt ad=0.135 pd=1.27 as=0.26 ps=2.52 w=1 l=0.15
X248 vin.t25 sw_top_2.sky130_fd_sc_hd__inv_4_0.Y out.t26 vss.t81 sky130_fd_pr__nfet_01v8 ad=0.29 pd=2.58 as=0.145 ps=1.29 w=1 l=0.3
X249 sky130_fd_sc_hd__inv_2_8.Y ctl4.t1 vdd sky130_fd_sc_hd__inv_2_7.VPB sky130_fd_pr__pfet_01v8_hvt ad=0.135 pd=1.27 as=0.26 ps=2.52 w=1 l=0.15
X250 out.t236 carray_0.unitcap_326.cn sky130_fd_pr__cap_mim_m3_1 l=2 w=2
X251 vdd.t17 sample.t16 sw_top_0.sky130_fd_sc_hd__inv_4_1.Y vdd.t16 sky130_fd_pr__pfet_01v8_hvt ad=0.135 pd=1.27 as=0.135 ps=1.27 w=1 l=0.15
X252 out.t237 sky130_fd_sc_hd__inv_2_1.Y sky130_fd_pr__cap_mim_m3_1 l=2 w=2
X253 out.t238 sky130_fd_sc_hd__inv_2_3.Y.t0 sky130_fd_pr__cap_mim_m3_1 l=2 w=2
X254 out.t239 sky130_fd_sc_hd__inv_2_1.Y sky130_fd_pr__cap_mim_m3_1 l=2 w=2
X255 out.t8 sw_top_3.sky130_fd_sc_hd__inv_4_0.Y vin.t3 vss.t32 sky130_fd_pr__nfet_01v8 ad=0.145 pd=1.29 as=0.29 ps=2.58 w=1 l=0.3
X256 vin.t36 sw_top_0.sky130_fd_sc_hd__inv_4_0.Y out.t37 vss.t104 sky130_fd_pr__nfet_01v8 ad=0.29 pd=2.58 as=0.145 ps=1.29 w=1 l=0.3
X257 out.t240 sky130_fd_sc_hd__inv_2_2.Y sky130_fd_pr__cap_mim_m3_1 l=2 w=2
X258 vin.t46 sw_top_1.sky130_fd_sc_hd__inv_4_1.Y out.t43 vdd.t72 sky130_fd_pr__pfet_01v8 ad=0.145 pd=1.29 as=0.145 ps=1.29 w=1 l=0.3
X259 sw_top_1.sky130_fd_sc_hd__inv_4_0.Y sw_top_1.sky130_fd_sc_hd__inv_4_1.Y vss.t117 vss.t116 sky130_fd_pr__nfet_01v8 ad=0.0878 pd=0.92 as=0.169 ps=1.82 w=0.65 l=0.15
X260 sw_top_3.sky130_fd_sc_hd__inv_4_1.Y sample.t17 vdd.t19 vdd.t18 sky130_fd_pr__pfet_01v8_hvt ad=0.135 pd=1.27 as=0.26 ps=2.52 w=1 l=0.15
X261 out.t241 sky130_fd_sc_hd__inv_2_1.Y sky130_fd_pr__cap_mim_m3_1 l=2 w=2
X262 out.t242 sky130_fd_sc_hd__inv_2_1.Y sky130_fd_pr__cap_mim_m3_1 l=2 w=2
X263 out.t243 carray_0.unitcap_88.cn sky130_fd_pr__cap_mim_m3_1 l=2 w=2
X264 out.t244 carray_0.unitcap_136.cn sky130_fd_pr__cap_mim_m3_1 l=2 w=2
X265 out.t245 sky130_fd_sc_hd__inv_2_2.Y sky130_fd_pr__cap_mim_m3_1 l=2 w=2
X266 vdd.t24 vss.t186 vdd.t23 vdd.t22 sky130_fd_pr__pfet_01v8_hvt ad=0.226 pd=2.26 as=0 ps=0 w=0.87 l=2.89
X267 out.t246 carray_0.unitcap_40.cn sky130_fd_pr__cap_mim_m3_1 l=2 w=2
X268 out.t247 carray_0.unitcap_191.cn sky130_fd_pr__cap_mim_m3_1 l=2 w=2
X269 out.t72 sw_top_0.sky130_fd_sc_hd__inv_4_1.Y vin.t73 vdd.t130 sky130_fd_pr__pfet_01v8 ad=0.145 pd=1.29 as=0.145 ps=1.29 w=1 l=0.3
X270 out.t248 sky130_fd_sc_hd__inv_2_2.Y sky130_fd_pr__cap_mim_m3_1 l=2 w=2
X271 out.t249 sky130_fd_sc_hd__inv_2_0.Y sky130_fd_pr__cap_mim_m3_1 l=2 w=2
X272 out.t250 sky130_fd_sc_hd__inv_2_2.Y sky130_fd_pr__cap_mim_m3_1 l=2 w=2
X273 out.t251 sky130_fd_sc_hd__inv_2_2.Y sky130_fd_pr__cap_mim_m3_1 l=2 w=2
X274 vin.t55 sw_top_2.sky130_fd_sc_hd__inv_4_1.Y out.t55 vdd.t89 sky130_fd_pr__pfet_01v8 ad=0.29 pd=2.58 as=0.145 ps=1.29 w=1 l=0.3
X275 out.t252 carray_0.unitcap_63.cn sky130_fd_pr__cap_mim_m3_1 l=2 w=2
X276 vss ctl3.t1 sky130_fd_sc_hd__inv_2_3.Y.t3 vss.t95 sky130_fd_pr__nfet_01v8 ad=0.169 pd=1.82 as=0.0878 ps=0.92 w=0.65 l=0.15
X277 out.t253 carray_0.unitcap_9.cn sky130_fd_pr__cap_mim_m3_1 l=2 w=2
X278 out.t69 sw_top_3.sky130_fd_sc_hd__inv_4_1.Y vin.t65 vdd.t110 sky130_fd_pr__pfet_01v8 ad=0.145 pd=1.29 as=0.29 ps=2.58 w=1 l=0.3
X279 out.t254 carray_0.unitcap_176.cn sky130_fd_pr__cap_mim_m3_1 l=2 w=2
X280 out.t255 sky130_fd_sc_hd__inv_2_1.Y sky130_fd_pr__cap_mim_m3_1 l=2 w=2
X281 vss.t14 vdd.t149 vss.t13 vss.t12 sky130_fd_pr__nfet_01v8 ad=0.143 pd=1.62 as=0 ps=0 w=0.55 l=2.89
X282 out.t256 sky130_fd_sc_hd__inv_2_5.Y sky130_fd_pr__cap_mim_m3_1 l=2 w=2
X283 out.t257 sky130_fd_sc_hd__inv_2_1.Y sky130_fd_pr__cap_mim_m3_1 l=2 w=2
X284 out.t258 carray_0.unitcap_80.cn sky130_fd_pr__cap_mim_m3_1 l=2 w=2
X285 out.t259 carray_0.unitcap_143.cn sky130_fd_pr__cap_mim_m3_1 l=2 w=2
X286 out.t260 carray_0.unitcap_120.cn sky130_fd_pr__cap_mim_m3_1 l=2 w=2
X287 vss.t87 sample.t18 sw_top_3.sky130_fd_sc_hd__inv_4_1.Y vss.t86 sky130_fd_pr__nfet_01v8 ad=0.169 pd=1.82 as=0.0878 ps=0.92 w=0.65 l=0.15
X288 sky130_fd_sc_hd__inv_2_7.Y dum.t2 vdd sky130_fd_sc_hd__inv_2_7.VPB sky130_fd_pr__pfet_01v8_hvt ad=0.135 pd=1.27 as=0.26 ps=2.52 w=1 l=0.15
X289 vin.t35 sw_top_0.sky130_fd_sc_hd__inv_4_0.Y out.t35 vss.t103 sky130_fd_pr__nfet_01v8 ad=0.145 pd=1.29 as=0.145 ps=1.29 w=1 l=0.3
X290 out.t261 sky130_fd_sc_hd__inv_2_1.Y sky130_fd_pr__cap_mim_m3_1 l=2 w=2
X291 out.t262 sky130_fd_sc_hd__inv_2_2.Y sky130_fd_pr__cap_mim_m3_1 l=2 w=2
X292 out.t263 sky130_fd_sc_hd__inv_2_2.Y sky130_fd_pr__cap_mim_m3_1 l=2 w=2
X293 vss ctl4.t2 sky130_fd_sc_hd__inv_2_8.Y vss.t170 sky130_fd_pr__nfet_01v8 ad=0.169 pd=1.82 as=0.0878 ps=0.92 w=0.65 l=0.15
X294 sky130_fd_sc_hd__inv_2_7.Y dum.t3 vss vss.t111 sky130_fd_pr__nfet_01v8 ad=0.0878 pd=0.92 as=0.169 ps=1.82 w=0.65 l=0.15
X295 out.t264 carray_0.unitcap_11.cn sky130_fd_pr__cap_mim_m3_1 l=2 w=2
X296 vdd.t27 vss.t187 vdd.t26 vdd.t25 sky130_fd_pr__pfet_01v8_hvt ad=0.226 pd=2.26 as=0 ps=0 w=0.87 l=0.59
X297 out.t265 carray_0.unitcap_144.cn sky130_fd_pr__cap_mim_m3_1 l=2 w=2
X298 out.t266 sky130_fd_sc_hd__inv_2_8.Y sky130_fd_pr__cap_mim_m3_1 l=2 w=2
X299 sw_top_2.sky130_fd_sc_hd__inv_4_0.Y sw_top_2.sky130_fd_sc_hd__inv_4_1.Y vdd.t88 vdd.t87 sky130_fd_pr__pfet_01v8_hvt ad=0.135 pd=1.27 as=0.26 ps=2.52 w=1 l=0.15
X300 out.t267 sky130_fd_sc_hd__inv_2_0.Y sky130_fd_pr__cap_mim_m3_1 l=2 w=2
X301 out.t268 sky130_fd_sc_hd__inv_2_2.Y sky130_fd_pr__cap_mim_m3_1 l=2 w=2